data/pglib_opf_case6470_rte_storage.m
%%%%%%%%%%%%%%%%%%%%%%%%%%%%%%%%%%%%%%%%%%%%%%%%%%%%%%%%%%%%%%%%%%%%%%%%%%%
%%%%                                                                  %%%%%
%%%%    IEEE PES Power Grid Library - Optimal Power Flow - v23.07     %%%%%
%%%%          (https://github.com/power-grid-lib/pglib-opf)           %%%%%
%%%%               Benchmark Group - Typical Operations               %%%%%
%%%%                         23 - July - 2023                         %%%%%
%%%%                                                                  %%%%%
%%%%%%%%%%%%%%%%%%%%%%%%%%%%%%%%%%%%%%%%%%%%%%%%%%%%%%%%%%%%%%%%%%%%%%%%%%%
%
%CASE6470RTE
%   AC Power flow data for French system.
%   Please see CASEFORMAT for details on the case file format.
%
%   This case accurately represents the size and complexity of French
%   very high voltage and high voltage transmission network.
%   These data are snapshots of French VHV+HV grid in 2013.
%   These data can be used to validate mathematical methods and tools.
%   These data should NOT be used for operation
%   nor planning of the French or European grids.
%
%   When publishing results using this data, please cite:
%     C. Josz, S. Fliscounakis, J. Maeght, and P. Panciatici,
%     "AC Power Flow Data in MATPOWER and QCQP Format: iTesla, RTE Snapshots, and PEGASE"
%     http://arxiv.org/abs/1603.01533
%
%   Contacts (primary contact for this file : Jean Maeght):
%   Cédric Josz, Stéphane Fliscounakis, Jean Maeght, Patrick Panciatici
%   firstname.lastname@rte-france.com
%   Réseau de Transport d'Electricité (French Transmission System Operator)
%   Département Expertise Système, Immeuble "Le Colbert"
%   9 rue de la Porte de Buc, 78000 Versailles Cedex, France
%   March 4th, 2016
%
%   Copyright (c) 2016 by Cédric Josz, Stéphane Fliscounakis, Jean Maeght,
%   and Patrick Panciatici
%   Licensed under the Creative Commons Attribution 4.0 International license,
%   http://creativecommons.org/licenses/by/4.0/
%
% Modified to have additional storage capacity and increased gencost
function mpc = pglib_opf_case6470_rte
mpc.version = '2';
mpc.baseMVA = 100.0;

%% bus data
%	bus_i	type	Pd	Qd	Gs	Bs	area	Vm	Va	baseKV	zone	Vmax	Vmin
mpc.bus = [
	1	 1	 0.0	 0.0	 0.0	 0.0	 1	    0.94444	    0.00000	 45.0	 1	    1.00000	    0.88889;
	2	 1	 0.0	 0.0	 0.0	 0.0	 1	    1.00000	    0.00000	 63.0	 1	    1.06349	    0.93651;
	3	 1	 12.5	 -0.7	 0.0	 0.0	 1	    1.01588	    0.00000	 63.0	 1	    1.07937	    0.95238;
	4	 1	 44.7	 -0.9	 0.0	 0.0	 1	    1.01111	    0.00000	 90.0	 1	    1.08889	    0.93333;
	5	 1	 12.0	 0.1	 0.0	 0.0	 1	    1.00794	    0.00000	 63.0	 1	    1.06349	    0.95238;
	6	 1	 13.0	 4.3	 0.0	 0.0	 1	    1.00000	    0.00000	 63.0	 1	    1.07937	    0.92063;
	7	 1	 1.2	 0.8	 0.0	 0.0	 1	    1.00000	    0.00000	 63.0	 1	    1.07937	    0.92063;
	8	 1	 25.8	 4.9	 0.0	 0.0	 1	    0.98889	    0.00000	 225.0	 1	    1.08889	    0.88889;
	9	 1	 12.9	 0.0	 0.0	 0.0	 1	    1.00000	    0.00000	 63.0	 1	    1.06349	    0.93651;
	10	 1	 0.0	 0.0	 0.0	 0.0	 1	    1.00000	    0.00000	 90.0	 1	    1.07778	    0.92222;
	11	 1	 28.8	 1.1	 0.0	 0.0	 1	    1.00000	    0.00000	 90.0	 1	    1.07778	    0.92222;
	12	 1	 0.0	 0.0	 0.0	 0.0	 1	    1.01588	    0.00000	 63.0	 1	    1.07937	    0.95238;
	13	 1	 0.0	 0.0	 0.0	 0.0	 1	    1.07895	    0.00000	 380.0	 1	    1.10263	    1.05526;
	14	 1	 51.5	 1.9	 0.0	 0.0	 1	    1.02778	    0.00000	 90.0	 1	    1.07778	    0.97778;
	15	 1	 0.0	 0.0	 0.0	 0.0	 1	    1.00000	    0.00000	 63.0	 1	    1.07937	    0.92063;
	16	 1	 13.8	 4.1	 0.0	 0.0	 1	    1.00000	    0.00000	 63.0	 1	    1.07937	    0.92063;
	17	 1	 13.1	 0.2	 0.0	 0.0	 1	    1.02222	    0.00000	 90.0	 1	    1.06667	    0.97778;
	18	 1	 0.0	 0.0	 0.0	 0.0	 1	    0.94444	    0.00000	 45.0	 1	    1.00000	    0.88889;
	19	 1	 1.0	 0.0	 0.0	 0.0	 1	    1.00000	    0.00000	 63.0	 1	    1.06349	    0.93651;
	20	 1	 0.9	 -21.5	 0.0	 0.0	 1	    0.94444	    0.00000	 45.0	 1	    1.00000	    0.88889;
	21	 1	 8.3	 -3.3	 0.0	 0.0	 1	    1.02222	    0.00000	 90.0	 1	    1.06667	    0.97778;
	22	 1	 18.0	 1.1	 0.0	 0.0	 1	    1.01588	    0.00000	 63.0	 1	    1.07937	    0.95238;
	23	 1	 19.2	 3.4	 0.0	 0.0	 1	    1.00000	    0.00000	 63.0	 1	    1.06349	    0.93651;
	24	 1	 16.1	 -1.6	 0.0	 0.0	 1	    1.03333	    0.00000	 90.0	 1	    1.11111	    0.95556;
	25	 1	 59.9	 -3.2	 0.0	 0.0	 1	    1.02222	    0.00000	 90.0	 1	    1.10000	    0.94444;
	26	 1	 35.1	 8.1	 0.0	 0.0	 1	    1.02222	    0.00000	 90.0	 1	    1.06667	    0.97778;
	27	 1	 0.0	 0.0	 0.0	 0.0	 1	    1.04444	    0.00000	 225.0	 1	    1.08444	    1.00444;
	28	 1	 0.7	 0.2	 0.0	 0.0	 1	    1.01588	    0.00000	 63.0	 1	    1.07937	    0.95238;
	29	 1	 60.1	 2.7	 0.0	 0.0	 1	    1.01587	    0.00000	 63.0	 1	    1.06349	    0.96825;
	30	 1	 33.5	 -0.9	 0.0	 0.0	 1	    1.01111	    0.00000	 90.0	 1	    1.08889	    0.93333;
	31	 1	 0.0	 0.0	 0.0	 0.0	 1	    1.00000	    0.00000	 63.0	 1	    1.06349	    0.93651;
	32	 1	 0.0	 0.0	 0.0	 0.0	 1	    1.00334	    0.00000	 150.0	 1	    1.10667	    0.90000;
	33	 1	 0.0	 0.0	 0.0	 0.0	 1	    1.01111	    0.00000	 225.0	 1	    1.08889	    0.93333;
	34	 1	 0.0	 0.0	 0.0	 0.0	 1	    1.01111	    0.00000	 225.0	 1	    1.08889	    0.93333;
	35	 1	 0.0	 0.0	 0.0	 0.0	 1	    1.07237	    0.00000	 380.0	 1	    1.10526	    1.03947;
	36	 1	 0.0	 0.0	 0.0	 0.0	 1	    1.07237	    0.00000	 380.0	 1	    1.10526	    1.03947;
	37	 1	 3.2	 4.3	 0.0	 0.0	 1	    1.00000	    0.00000	 63.0	 1	    1.07937	    0.92063;
	38	 1	 6.0	 -2.0	 0.0	 0.0	 1	    1.01587	    0.00000	 63.0	 1	    1.09524	    0.93651;
	39	 1	 41.0	 -3.3	 0.0	 0.0	 1	    1.02778	    0.00000	 90.0	 1	    1.07778	    0.97778;
	40	 1	 32.6	 0.5	 0.0	 0.0	 1	    1.02778	    0.00000	 90.0	 1	    1.07778	    0.97778;
	41	 1	 0.0	 0.0	 0.0	 0.0	 1	    1.04666	    0.00000	 225.0	 1	    1.08889	    1.00444;
	42	 1	 0.0	 0.0	 0.0	 0.0	 1	    1.04249	    0.00000	 63.0	 1	    1.13259	    0.95238;
	43	 1	 3.6	 2.0	 0.0	 0.0	 1	    1.02778	    0.00000	 90.0	 1	    1.07778	    0.97778;
	44	 1	 13.0	 -0.7	 0.0	 0.0	 1	    1.00794	    0.00000	 63.0	 1	    1.06349	    0.95238;
	45	 1	 3.9	 1.7	 0.0	 0.0	 1	    1.02222	    0.00000	 90.0	 1	    1.06667	    0.97778;
	46	 1	 0.0	 0.0	 0.0	 0.0	 1	    1.00000	    0.00000	 63.0	 1	    1.06349	    0.93651;
	47	 2	 0.0	 0.0	 0.0	 0.0	 1	    1.00000	    0.00000	 63.0	 1	    1.06349	    0.93651;
	48	 1	 36.5	 3.4	 0.0	 0.0	 1	    1.00000	    0.00000	 90.0	 1	    1.07778	    0.92222;
	49	 1	 8.8	 -1.7	 0.0	 0.0	 1	    1.00000	    0.00000	 63.0	 1	    1.06349	    0.93651;
	50	 1	 0.0	 0.0	 0.0	 0.0	 1	    1.00331	    0.00000	 63.0	 1	    1.07012	    0.93651;
	51	 1	 0.0	 0.0	 0.0	 0.0	 1	    1.01111	    0.00000	 225.0	 1	    1.08889	    0.93333;
	52	 1	 5.0	 2.4	 0.0	 0.0	 1	    1.02222	    0.00000	 90.0	 1	    1.06667	    0.97778;
	53	 1	 2.5	 -0.5	 0.0	 0.0	 1	    1.00000	    0.00000	 63.0	 1	    1.04762	    0.95238;
	54	 1	 -0.4	 -0.0	 0.0	 0.0	 1	    1.02222	    0.00000	 90.0	 1	    1.06667	    0.97778;
	55	 1	 37.6	 6.7	 0.0	 0.0	 1	    1.04666	    0.00000	 225.0	 1	    1.08889	    1.00444;
	56	 1	 52.1	 13.5	 0.0	 0.0	 1	    1.04666	    0.00000	 225.0	 1	    1.08889	    1.00444;
	57	 2	 0.0	 0.0	 0.0	 0.0	 1	    1.00000	    0.00000	 63.0	 1	    1.07937	    0.92063;
	58	 1	 130.6	 30.1	 0.0	 0.0	 1	    1.04666	    0.00000	 225.0	 1	    1.08889	    1.00444;
	59	 1	 5.1	 1.3	 0.0	 0.0	 1	    1.01588	    0.00000	 63.0	 1	    1.07937	    0.95238;
	60	 1	 0.0	 0.0	 0.0	 0.0	 1	    1.01588	    0.00000	 63.0	 1	    1.07937	    0.95238;
	61	 1	 39.5	 9.7	 0.0	 0.0	 1	    1.01588	    0.00000	 63.0	 1	    1.07937	    0.95238;
	62	 1	 0.0	 0.0	 0.0	 0.0	 1	    1.01588	    0.00000	 63.0	 1	    1.07937	    0.95238;
	63	 1	 15.8	 2.0	 0.0	 0.0	 1	    1.01588	    0.00000	 63.0	 1	    1.07937	    0.95238;
	64	 1	 62.4	 1.0	 0.0	 0.0	 1	    0.98889	    0.00000	 225.0	 1	    1.08889	    0.88889;
	65	 1	 11.0	 2.8	 0.0	 0.0	 1	    1.01588	    0.00000	 63.0	 1	    1.07937	    0.95238;
	66	 1	 13.2	 -7.9	 0.0	 0.0	 1	    1.00000	    0.00000	 63.0	 1	    1.06349	    0.93651;
	67	 1	 0.0	 0.0	 0.0	 0.0	 1	    1.00000	    0.00000	 63.0	 1	    1.07937	    0.92063;
	68	 1	 48.1	 -0.1	 0.0	 0.0	 1	    1.00000	    0.00000	 63.0	 1	    1.06349	    0.93651;
	69	 1	 19.3	 -2.7	 0.0	 0.0	 1	    1.00794	    0.00000	 63.0	 1	    1.06349	    0.95238;
	70	 1	 10.6	 2.7	 0.0	 0.0	 1	    1.01588	    0.00000	 63.0	 1	    1.07937	    0.95238;
	71	 1	 62.4	 14.9	 0.0	 0.0	 1	    1.00000	    0.00000	 63.0	 1	    1.04762	    0.95238;
	72	 1	 0.0	 0.0	 0.0	 0.0	 1	    1.04736	    0.00000	 225.0	 1	    1.09027	    1.00444;
	73	 1	 0.0	 0.0	 0.0	 0.0	 1	    1.04734	    0.00000	 225.0	 1	    1.09025	    1.00444;
	74	 1	 50.4	 -9.9	 0.0	 0.0	 1	    0.98889	    0.00000	 225.0	 1	    1.08889	    0.88889;
	75	 1	 22.3	 1.8	 0.0	 0.0	 1	    1.02254	    0.00000	 90.0	 1	    1.06730	    0.97778;
	76	 1	 2.6	 -0.4	 0.0	 0.0	 1	    1.03795	    0.00000	 225.0	 1	    1.08923	    0.98667;
	77	 1	 36.8	 -0.4	 0.0	 0.0	 1	    1.00000	    0.00000	 63.0	 1	    1.06349	    0.93651;
	78	 1	 0.0	 0.0	 0.0	 0.0	 1	    1.00000	    0.00000	 63.0	 1	    1.07937	    0.92063;
	79	 1	 0.0	 0.0	 0.0	 0.0	 1	    1.00000	    0.00000	 63.0	 1	    1.04762	    0.95238;
	80	 1	 32.3	 7.3	 0.0	 0.0	 1	    1.04666	    0.00000	 225.0	 1	    1.08889	    1.00444;
	81	 1	 36.3	 9.9	 0.0	 0.0	 1	    1.04666	    0.00000	 225.0	 1	    1.08889	    1.00444;
	82	 1	 11.7	 1.6	 0.0	 0.0	 1	    1.00000	    0.00000	 63.0	 1	    1.06349	    0.93651;
	83	 1	 77.5	 26.4	 0.0	 0.0	 1	    1.04666	    0.00000	 225.0	 1	    1.08889	    1.00444;
	84	 1	 -1.6	 -1.2	 0.0	 0.0	 1	    1.00000	    0.00000	 63.0	 1	    1.06349	    0.93651;
	85	 1	 2.1	 -2.1	 0.0	 0.0	 1	    1.00000	    0.00000	 63.0	 1	    1.06349	    0.93651;
	86	 1	 48.9	 3.6	 0.0	 0.0	 1	    1.02222	    0.00000	 90.0	 1	    1.06667	    0.97778;
	87	 1	 0.0	 0.0	 0.0	 0.0	 1	    1.01588	    0.00000	 63.0	 1	    1.07937	    0.95238;
	88	 1	 13.5	 -0.1	 0.0	 0.0	 1	    1.00000	    0.00000	 63.0	 1	    1.06349	    0.93651;
	89	 1	 25.4	 0.8	 0.0	 0.0	 1	    1.02778	    0.00000	 90.0	 1	    1.07778	    0.97778;
	90	 1	 0.4	 -1.4	 0.0	 0.0	 1	    0.94444	    0.00000	 45.0	 1	    1.00000	    0.88889;
	91	 1	 1.0	 0.0	 0.0	 0.0	 1	    0.94444	    0.00000	 45.0	 1	    1.00000	    0.88889;
	92	 1	 28.6	 3.2	 0.0	 0.0	 1	    1.01587	    0.00000	 63.0	 1	    1.06349	    0.96825;
	93	 1	 2.1	 -2.5	 0.0	 0.0	 1	    0.94444	    0.00000	 45.0	 1	    1.00000	    0.88889;
	94	 1	 17.5	 -4.3	 0.0	 0.0	 1	    1.02222	    0.00000	 90.0	 1	    1.06667	    0.97778;
	95	 1	 46.5	 7.6	 0.0	 0.0	 1	    1.02222	    0.00000	 90.0	 1	    1.06667	    0.97778;
	96	 1	 1.5	 -0.7	 0.0	 0.0	 1	    1.00000	    0.00000	 63.0	 1	    1.06349	    0.93651;
	97	 1	 56.4	 0.9	 0.0	 0.0	 1	    1.00000	    0.00000	 63.0	 1	    1.07937	    0.92063;
	98	 1	 7.4	 -1.3	 0.0	 0.0	 1	    1.01588	    0.00000	 63.0	 1	    1.07937	    0.95238;
	99	 1	 26.9	 3.1	 0.0	 0.0	 1	    1.01588	    0.00000	 63.0	 1	    1.07937	    0.95238;
	100	 1	 53.3	 8.6	 0.0	 0.0	 1	    1.00000	    0.00000	 63.0	 1	    1.06349	    0.93651;
	101	 1	 17.7	 0.5	 0.0	 0.0	 1	    1.00000	    0.00000	 63.0	 1	    1.06349	    0.93651;
	102	 2	 0.0	 0.0	 0.0	 0.0	 1	    1.01588	    0.00000	 63.0	 1	    1.07937	    0.95238;
	103	 1	 18.0	 -1.1	 0.0	 0.0	 1	    1.01588	    0.00000	 63.0	 1	    1.07937	    0.95238;
	104	 1	 0.0	 0.0	 0.0	 0.0	 1	    1.03778	    0.00000	 225.0	 1	    1.08889	    0.98667;
	105	 1	 35.5	 1.0	 0.0	 0.0	 1	    0.98889	    0.00000	 225.0	 1	    1.08889	    0.88889;
	106	 1	 49.8	 7.5	 0.0	 0.0	 1	    1.02222	    0.00000	 90.0	 1	    1.10000	    0.94444;
	107	 1	 77.6	 8.1	 0.0	 0.0	 1	    1.04666	    0.00000	 225.0	 1	    1.08444	    1.00889;
	108	 1	 12.6	 -0.4	 0.0	 0.0	 1	    1.02778	    0.00000	 90.0	 1	    1.07778	    0.97778;
	109	 1	 68.7	 10.9	 0.0	 0.0	 1	    1.00000	    0.00000	 63.0	 1	    1.06349	    0.93651;
	110	 1	 0.0	 0.0	 0.0	 0.0	 1	    1.01111	    0.00000	 225.0	 1	    1.08889	    0.93333;
	111	 1	 36.5	 -7.9	 0.0	 0.0	 1	    1.01587	    0.00000	 63.0	 1	    1.06349	    0.96825;
	112	 1	 0.0	 0.0	 0.0	 0.0	 1	    1.00000	    0.00000	 63.0	 1	    1.04762	    0.95238;
	113	 1	 0.0	 0.0	 0.0	 0.0	 1	    1.04666	    0.00000	 225.0	 1	    1.08889	    1.00444;
	114	 1	 10.8	 -0.0	 0.0	 0.0	 1	    1.00000	    0.00000	 63.0	 1	    1.06349	    0.93651;
	115	 1	 0.0	 0.0	 0.0	 0.0	 1	    1.07895	    0.00000	 380.0	 1	    1.10526	    1.05263;
	116	 1	 0.0	 0.0	 0.0	 0.0	 1	    1.07895	    0.00000	 380.0	 1	    1.10526	    1.05263;
	117	 1	 15.4	 -1.0	 0.0	 0.0	 1	    1.01588	    0.00000	 63.0	 1	    1.07937	    0.95238;
	118	 1	 2.0	 0.8	 0.0	 0.0	 1	    1.02368	    0.00000	 90.0	 1	    1.06958	    0.97778;
	119	 1	 37.2	 5.3	 0.0	 0.0	 1	    1.00000	    0.00000	 63.0	 1	    1.06349	    0.93651;
	120	 1	 17.0	 -3.2	 0.0	 0.0	 1	    1.00000	    0.00000	 63.0	 1	    1.06349	    0.93651;
	121	 1	 17.6	 3.9	 0.0	 0.0	 1	    1.00000	    0.00000	 63.0	 1	    1.07937	    0.92063;
	122	 2	 0.0	 0.0	 0.0	 0.0	 1	    1.01588	    0.00000	 63.0	 1	    1.07937	    0.95238;
	123	 1	 9.0	 2.6	 0.0	 0.0	 1	    1.01588	    0.00000	 63.0	 1	    1.07937	    0.95238;
	124	 1	 8.0	 -0.9	 0.0	 0.0	 1	    1.02222	    0.00000	 90.0	 1	    1.06667	    0.97778;
	125	 1	 10.5	 -0.5	 0.0	 0.0	 1	    1.01588	    0.00000	 63.0	 1	    1.07937	    0.95238;
	126	 1	 0.3	 -0.1	 0.0	 0.0	 1	    1.00000	    0.00000	 63.0	 1	    1.06349	    0.93651;
	127	 1	 7.8	 1.5	 0.0	 0.0	 1	    1.00000	    0.00000	 63.0	 1	    1.04762	    0.95238;
	128	 1	 11.8	 7.6	 0.0	 0.0	 1	    1.01587	    0.00000	 63.0	 1	    1.06349	    0.96825;
	129	 1	 16.7	 11.8	 0.0	 0.0	 1	    1.01587	    0.00000	 63.0	 1	    1.06349	    0.96825;
	130	 1	 0.0	 0.0	 0.0	 0.0	 1	    1.04666	    0.00000	 225.0	 1	    1.08444	    1.00889;
	131	 1	 103.0	 13.6	 0.0	 0.0	 1	    1.04666	    0.00000	 225.0	 1	    1.08444	    1.00889;
	132	 2	 11.5	 0.0	 0.0	 0.0	 1	    1.00000	    0.00000	 90.0	 1	    1.07778	    0.92222;
	133	 1	 2.1	 0.5	 0.0	 0.0	 1	    1.00000	    0.00000	 63.0	 1	    1.04762	    0.95238;
	134	 1	 83.5	 23.6	 0.0	 0.0	 1	    1.04666	    0.00000	 225.0	 1	    1.08889	    1.00444;
	135	 1	 0.0	 0.0	 0.0	 0.0	 1	    1.04666	    0.00000	 225.0	 1	    1.08889	    1.00444;
	136	 1	 21.9	 -0.2	 0.0	 0.0	 1	    1.02778	    0.00000	 90.0	 1	    1.07778	    0.97778;
	137	 2	 9.6	 -4.4	 0.0	 0.0	 1	    1.01587	    0.00000	 63.0	 1	    1.06349	    0.96825;
	138	 1	 0.0	 0.0	 0.0	 0.0	 1	    1.02333	    0.00000	 150.0	 1	    1.08000	    0.96667;
	139	 1	 15.7	 2.2	 0.0	 0.0	 1	    1.00000	    0.00000	 63.0	 1	    1.07937	    0.92063;
	140	 1	 0.0	 0.0	 0.0	 80.0	 1	    1.04445	    0.00000	 225.0	 1	    1.08889	    1.00000;
	141	 1	 0.0	 0.0	 0.0	 0.0	 1	    1.07895	    0.00000	 380.0	 1	    1.10526	    1.05263;
	142	 1	 14.8	 5.8	 0.0	 0.0	 1	    1.01588	    0.00000	 63.0	 1	    1.07937	    0.95238;
	143	 1	 0.0	 0.0	 0.0	 0.0	 1	    1.03778	    0.00000	 225.0	 1	    1.08889	    0.98667;
	144	 1	 23.3	 -10.3	 0.0	 0.0	 1	    1.03333	    0.00000	 90.0	 1	    1.11111	    0.95556;
	145	 1	 27.6	 5.9	 0.0	 0.0	 1	    1.02889	    0.00000	 225.0	 1	    1.08889	    0.96889;
	146	 1	 0.0	 0.0	 0.0	 0.0	 1	    1.05263	    0.00000	 380.0	 1	    1.10526	    1.00000;
	147	 1	 29.0	 5.5	 0.0	 0.0	 1	    1.00000	    0.00000	 63.0	 1	    1.06349	    0.93651;
	148	 1	 6.7	 2.4	 0.0	 0.0	 1	    1.00000	    0.00000	 63.0	 1	    1.06349	    0.93651;
	149	 1	 17.9	 6.1	 0.0	 0.0	 1	    1.02222	    0.00000	 90.0	 1	    1.06667	    0.97778;
	150	 1	 44.5	 6.4	 0.0	 0.0	 1	    1.00000	    0.00000	 63.0	 1	    1.06349	    0.93651;
	151	 1	 0.0	 0.0	 0.0	 0.0	 1	    1.01587	    0.00000	 63.0	 1	    1.06349	    0.96825;
	152	 1	 38.3	 8.8	 0.0	 7.7	 1	    1.01587	    0.00000	 63.0	 1	    1.06349	    0.96825;
	153	 1	 23.2	 -2.6	 0.0	 0.0	 1	    1.00000	    0.00000	 63.0	 1	    1.06349	    0.93651;
	154	 1	 0.0	 0.0	 0.0	 0.0	 1	    1.01111	    0.00000	 225.0	 1	    1.08889	    0.93333;
	155	 2	 0.0	 0.0	 0.0	 0.0	 1	    1.00000	    0.00000	 63.0	 1	    1.07937	    0.92063;
	156	 1	 0.0	 0.0	 0.0	 0.0	 1	    1.01587	    0.00000	 63.0	 1	    1.06349	    0.96825;
	157	 1	 0.3	 3.1	 0.0	 0.0	 1	    0.94444	    0.00000	 45.0	 1	    1.00000	    0.88889;
	158	 2	 0.0	 0.0	 0.0	 0.0	 1	    0.94444	    0.00000	 45.0	 1	    1.00000	    0.88889;
	159	 1	 0.0	 0.0	 0.0	 0.0	 1	    1.00000	    0.00000	 63.0	 1	    1.06349	    0.93651;
	160	 1	 35.2	 5.6	 0.0	 0.0	 1	    0.98889	    0.00000	 225.0	 1	    1.08889	    0.88889;
	161	 1	 38.2	 8.7	 0.0	 0.0	 1	    0.98889	    0.00000	 225.0	 1	    1.08889	    0.88889;
	162	 1	 0.7	 -1.4	 0.0	 0.0	 1	    1.02222	    0.00000	 90.0	 1	    1.06667	    0.97778;
	163	 1	 0.0	 0.0	 0.0	 0.0	 1	    1.01588	    0.00000	 63.0	 1	    1.07937	    0.95238;
	164	 1	 0.0	 0.0	 0.0	 0.0	 1	    1.01588	    0.00000	 63.0	 1	    1.07937	    0.95238;
	165	 1	 16.7	 9.2	 0.0	 0.0	 1	    0.97500	    0.00000	 20.0	 1	    1.15000	    0.80000;
	166	 1	 10.1	 2.4	 0.0	 0.0	 1	    1.02222	    0.00000	 90.0	 1	    1.06667	    0.97778;
	167	 1	 13.6	 0.6	 0.0	 0.0	 1	    1.02222	    0.00000	 90.0	 1	    1.06667	    0.97778;
	168	 1	 0.0	 0.0	 0.0	 0.0	 1	    1.04444	    0.00000	 225.0	 1	    1.08444	    1.00444;
	169	 1	 10.8	 -1.0	 0.0	 0.0	 1	    1.02222	    0.00000	 90.0	 1	    1.06667	    0.97778;
	170	 1	 70.4	 11.6	 0.0	 0.0	 1	    1.02778	    0.00000	 90.0	 1	    1.07778	    0.97778;
	171	 1	 26.5	 -0.4	 0.0	 0.0	 1	    1.02778	    0.00000	 90.0	 1	    1.07778	    0.97778;
	172	 1	 0.0	 0.0	 0.0	 0.0	 1	    1.04666	    0.00000	 225.0	 1	    1.08889	    1.00444;
	173	 1	 27.7	 8.5	 0.0	 0.0	 1	    1.01111	    0.00000	 90.0	 1	    1.08889	    0.93333;
	174	 1	 47.4	 4.6	 0.0	 0.0	 1	    1.03333	    0.00000	 90.0	 1	    1.11111	    0.95556;
	175	 1	 0.0	 0.0	 0.0	 0.0	 1	    1.00000	    0.00000	 63.0	 1	    1.07937	    0.92063;
	176	 1	 0.0	 0.0	 0.0	 0.0	 1	    1.00000	    0.00000	 63.0	 1	    1.07937	    0.92063;
	177	 2	 0.0	 0.0	 0.0	 0.0	 1	    1.00000	    0.00000	 150.0	 1	    1.10000	    0.90000;
	178	 1	 0.0	 0.0	 0.0	 0.0	 1	    1.04666	    0.00000	 225.0	 1	    1.08889	    1.00444;
	179	 1	 0.0	 0.0	 0.0	 0.0	 1	    1.04666	    0.00000	 225.0	 1	    1.08889	    1.00444;
	180	 1	 0.0	 0.0	 0.0	 -32.0	 1	    0.97500	    0.00000	 20.0	 1	    1.15000	    0.80000;
	181	 1	 0.0	 0.0	 0.0	 -32.0	 1	    0.97500	    0.00000	 20.0	 1	    1.15000	    0.80000;
	182	 1	 0.0	 0.0	 0.0	 0.0	 1	    1.00000	    0.00000	 63.0	 1	    1.04762	    0.95238;
	183	 1	 0.0	 0.0	 0.0	 0.0	 1	    1.04666	    0.00000	 225.0	 1	    1.08889	    1.00444;
	184	 1	 12.9	 -4.6	 0.0	 0.0	 1	    1.00000	    0.00000	 63.0	 1	    1.07937	    0.92063;
	185	 1	 16.0	 3.1	 0.0	 0.0	 1	    1.00000	    0.00000	 63.0	 1	    1.06349	    0.93651;
	186	 1	 4.8	 -0.4	 0.0	 0.0	 1	    1.01588	    0.00000	 63.0	 1	    1.07937	    0.95238;
	187	 1	 5.0	 1.4	 0.0	 0.0	 1	    1.02778	    0.00000	 90.0	 1	    1.07778	    0.97778;
	188	 1	 28.7	 4.0	 0.0	 0.0	 1	    1.01588	    0.00000	 63.0	 1	    1.07937	    0.95238;
	189	 1	 1.1	 0.3	 0.0	 0.0	 1	    1.02222	    0.00000	 90.0	 1	    1.06667	    0.97778;
	190	 2	 0.0	 0.0	 0.0	 0.0	 1	    1.00000	    0.00000	 63.0	 1	    1.07937	    0.92063;
	191	 1	 16.2	 1.6	 0.0	 0.0	 1	    1.00000	    0.00000	 63.0	 1	    1.07937	    0.92063;
	192	 2	 0.0	 0.0	 0.0	 0.0	 1	    0.94444	    0.00000	 45.0	 1	    1.00000	    0.88889;
	193	 1	 13.8	 -0.3	 0.0	 0.0	 1	    1.02222	    0.00000	 90.0	 1	    1.06667	    0.97778;
	194	 1	 7.4	 -1.5	 0.0	 0.0	 1	    1.00000	    0.00000	 63.0	 1	    1.07937	    0.92063;
	195	 1	 7.9	 4.8	 0.0	 0.0	 1	    1.04666	    0.00000	 225.0	 1	    1.08889	    1.00444;
	196	 2	 1.0	 -0.3	 0.0	 0.0	 1	    1.00000	    0.00000	 63.0	 1	    1.07937	    0.92063;
	197	 1	 0.0	 0.0	 0.0	 0.0	 1	    1.02538	    0.00000	 63.0	 1	    1.09837	    0.95238;
	198	 1	 0.0	 0.0	 0.0	 0.0	 1	    1.02538	    0.00000	 63.0	 1	    1.09837	    0.95238;
	199	 1	 24.4	 1.2	 0.0	 0.0	 1	    1.00000	    0.00000	 63.0	 1	    1.07937	    0.92063;
	200	 1	 9.3	 -2.7	 0.0	 0.0	 1	    1.00000	    0.00000	 63.0	 1	    1.07937	    0.92063;
...
];

%% generator data
%	bus	Pg	Qg	Qmax	Qmin	Vg	mBase	status	Pmax	Pmin
mpc.gen = [
	4	 0.0	 0.0	 0.0	 0.0	 1.0111115	 100.0	 0	 12.0	 0.0; % COW
	4	 0.0	 0.0	 0.0	 0.0	 1.0111115	 100.0	 0	 10.0	 0.0; % NG
	5	 4.55	 0.0	 0.0	 0.0	 1.0079355	 100.0	 1	 9.1	 0.0; % NG
	11	 0.0	 0.0	 0.0	 0.0	 1.000001	 100.0	 0	 28.0	 0.0; % PEL
	11	 0.0	 0.0	 0.0	 0.0	 1.000001	 100.0	 0	 18.0	 0.0; % PEL
	17	 4.1	 0.0	 0.0	 0.0	 1.022224	 100.0	 1	 8.2	 0.0; % COW
	19	 0.0	 0.0	 0.0	 0.0	 0.999999	 100.0	 0	 1.2	 0.0; % PEL
	22	 0.0	 0.0	 0.0	 0.0	 1.0158755	 100.0	 0	 10.0	 0.0; % PEL
	24	 0.0	 0.0	 0.0	 0.0	 1.033333	 100.0	 0	 16.1	 0.0; % NG
	24	 17.75	 0.0	 0.0	 0.0	 1.033333	 100.0	 1	 35.5	 0.0; % PEL
	25	 18.0	 0.0	 0.0	 0.0	 1.022222	 100.0	 1	 36.0	 0.0; % PEL
	25	 0.0	 0.0	 0.0	 0.0	 1.022222	 100.0	 0	 27.2	 0.0; % NG
	40	 0.0	 0.0	 0.0	 0.0	 1.027779	 100.0	 0	 8.0	 0.0; % COW
	47	 8.0	 0.0	 9.5	 -9.5	 0.999999	 100.0	 1	 16.0	 0.0; % NG
	47	 0.0	 -1.81	 9.5	 -9.5	 0.999999	 100.0	 0	 16.0	 0.0; % NG
	48	 11.5	 0.0	 0.0	 0.0	 1.000001	 100.0	 1	 23.0	 0.0; % NG
	48	 12.0	 0.0	 0.0	 0.0	 1.000001	 100.0	 1	 24.0	 0.0; % COW
	57	 6.5	 0.95	 1.0	 0.9	 1.0000025	 100.0	 1	 13.0	 0.0; % NG
	64	 0.0	 0.0	 0.0	 0.0	 0.9888895	 100.0	 0	 24.0	 0.0; % PEL
	64	 13.8	 0.0	 0.0	 0.0	 0.9888895	 100.0	 1	 27.6	 0.0; % NG
	69	 15.02	 0.0	 0.0	 0.0	 1.0079355	 100.0	 1	 30.04	 0.0; % NG
	70	 11.5	 0.0	 0.0	 0.0	 1.0158755	 100.0	 1	 23.0	 0.0; % PEL
	85	 0.0	 0.0	 0.0	 0.0	 0.999999	 100.0	 0	 6.68	 0.0; % NG
	86	 4.6	 0.0	 0.0	 0.0	 1.022224	 100.0	 1	 9.2	 0.0; % NG
	102	 23.0	 6.0	 21.0	 -9.0	 1.0158755	 100.0	 1	 46.0	 0.0; % NG
	122	 6.0	 1.5	 5.0	 -2.0	 1.0158755	 100.0	 1	 12.0	 0.0; % COW
	124	 4.5	 0.0	 0.0	 0.0	 1.022224	 100.0	 1	 9.0	 0.0; % PEL
	125	 13.0	 0.0	 0.0	 0.0	 1.0158755	 100.0	 1	 26.0	 0.0; % NG
	125	 6.0	 0.0	 0.0	 0.0	 1.0158755	 100.0	 1	 12.0	 0.0; % PEL
	132	 8.5	 0.0	 3.0	 -3.0	 1.000001	 100.0	 1	 17.0	 0.0; % NG
	132	 0.0	 1.0	 1.0	 -1.0	 1.000001	 100.0	 0	 4.0	 0.0; % NG
	132	 0.0	 1.99	 3.0	 -3.0	 1.000001	 100.0	 0	 14.0	 0.0; % COW
	132	 0.0	 1.99	 3.0	 -3.0	 1.000001	 100.0	 0	 14.0	 0.0; % COW
	137	 0.0	 -0.57	 0.8	 -0.8	 1.015872	 100.0	 0	 18.0	 0.0; % NG
	137	 9.0	 0.0	 0.8	 -0.8	 1.015872	 100.0	 1	 18.0	 0.0; % PEL
	155	 0.0	 -1.75	 1.76	 -1.76	 1.0000025	 100.0	 0	 5.3	 0.0; % NG
	158	 8.95	 -1.5	 10.0	 -13.0	 0.9444445	 100.0	 1	 17.9	 0.0; % NG
	158	 0.0	 -2.57	 10.0	 -13.0	 0.9444445	 100.0	 0	 17.9	 0.0; % PEL
	177	 0.0	 -1.56	 10.0	 -4.0	 1.0	 100.0	 0	 30.0	 0.0; % NG
	190	 0.0	 -1.41	 8.0	 -8.0	 1.0000025	 100.0	 0	 11.0	 0.0; % PEL
	190	 0.0	 -1.41	 2.0	 -2.0	 1.0000025	 100.0	 0	 11.0	 0.0; % NG
	192	 0.0	 -2.63	 14.0	 -14.0	 0.9444445	 100.0	 0	 30.0	 0.0; % NG
	194	 0.0	 0.0	 0.0	 0.0	 1.0000025	 100.0	 0	 23.5	 0.0; % PEL
	196	 7.5	 0.95	 1.0	 0.9	 1.0000025	 100.0	 1	 15.0	 0.0; % NG
	196	 7.5	 0.95	 1.0	 0.9	 1.0000025	 100.0	 1	 15.0	 0.0; % PEL
	219	 5.97	 0.0	 0.0	 0.0	 1.022224	 100.0	 1	 11.94	 0.0; % PEL
	226	 0.0	 0.0	 2.0	 0.0	 1.0	 100.0	 0	 6.0	 0.0; % PEL
	229	 3.75	 0.0	 0.0	 0.0	 1.0079355	 100.0	 1	 7.5	 0.0; % NG
	238	 16.75	 0.0	 0.0	 0.0	 1.000001	 100.0	 1	 33.5	 0.0; % NG
	238	 12.15	 0.0	 0.0	 0.0	 1.000001	 100.0	 1	 24.3	 0.0; % PEL
	240	 0.0	 0.0	 0.0	 0.0	 1.022224	 100.0	 0	 8.0	 0.0; % NG
	240	 18.0	 0.0	 0.0	 0.0	 1.022224	 100.0	 1	 36.0	 0.0; % PEL
	248	 0.0	 0.0	 2.0	 0.0	 0.999999	 100.0	 0	 1.0	 0.0; % PEL
	248	 0.0	 -2.77	 10.0	 -10.0	 0.999999	 100.0	 0	 31.0	 0.0; % NG
	248	 0.0	 -2.77	 10.0	 -10.0	 0.999999	 100.0	 0	 31.0	 0.0; % NG
	248	 0.0	 -2.77	 10.0	 -10.0	 0.999999	 100.0	 0	 31.0	 0.0; % NG
	258	 0.0	 -1.94	 10.0	 -10.0	 1.0000025	 100.0	 0	 26.0	 0.0; % NG
	258	 0.0	 0.23	 10.0	 -10.0	 1.0000025	 100.0	 0	 26.0	 0.0; % NG
	260	 15.0	 0.95	 1.0	 0.9	 1.000001	 100.0	 1	 30.0	 0.0; % COW
	263	 4.0	 0.0	 4.0	 -4.0	 1.0000025	 100.0	 1	 8.0	 0.0; % COW
	271	 0.0	 0.0	 0.0	 0.0	 1.0000025	 100.0	 0	 12.6	 0.0; % PEL
	284	 0.0	 -2.78	 6.1	 -6.2	 0.999999	 100.0	 0	 11.6	 0.0; % NG
	297	 0.0	 0.0	 0.0	 0.0	 0.9888895	 100.0	 0	 25.3	 0.0; % NG
	298	 0.0	 0.0	 0.0	 0.0	 1.0158755	 100.0	 0	 12.0	 0.0; % NG
	307	 7.5	 0.0	 9.0	 -9.0	 0.999999	 100.0	 1	 15.0	 0.0; % NG
	314	 12.9	 0.0	 0.0	 0.0	 1.000001	 100.0	 1	 25.8	 0.0; % NG
	314	 24.8	 0.0	 0.0	 0.0	 1.000001	 100.0	 1	 49.6	 0.0; % NG
	319	 0.0	 0.0	 0.0	 0.0	 1.0000025	 100.0	 0	 0.0	 -7.0; % SYNC
	319	 0.0	 0.0	 0.0	 0.0	 1.0000025	 100.0	 0	 0.0	 -7.0; % SYNC
	321	 5.4	 0.0	 0.1	 -0.1	 1.0000025	 100.0	 1	 10.8	 0.0; % NG
	327	 0.0	 -0.57	 4.0	 -4.0	 0.999999	 100.0	 0	 11.0	 0.0; % NG
	334	 0.0	 0.13	 13.0	 -9.0	 1.015872	 100.0	 0	 25.0	 0.0; % PEL
	335	 12.5	 2.0	 13.0	 -9.0	 1.0233335	 100.0	 1	 25.0	 0.0; % COW
	338	 6.5	 -0.5	 5.0	 -6.0	 1.0000025	 100.0	 1	 13.0	 0.0; % NG
	340	 0.0	 -1.82	 10.0	 -10.0	 1.0000025	 100.0	 0	 21.0	 0.0; % NG
	340	 0.0	 -0.1	 0.1	 -0.1	 1.0000025	 100.0	 0	 2.0	 0.0; % PEL
	347	 0.0	 0.0	 0.0	 0.0	 1.027779	 100.0	 0	 2.3	 0.0; % PEL
	347	 9.75	 0.0	 0.0	 0.0	 1.027779	 100.0	 1	 19.5	 0.0; % PEL
	350	 0.0	 0.0	 0.0	 0.0	 1.022222	 100.0	 0	 22.0	 0.0; % PEL
	358	 0.0	 1.84	 30.0	 -30.0	 1.0000025	 100.0	 0	 30.0	 0.0; % NG
	359	 6.0	 0.0	 0.0	 0.0	 1.0158755	 100.0	 1	 12.0	 0.0; % COW
	359	 6.0	 0.0	 0.0	 0.0	 1.0158755	 100.0	 1	 12.0	 0.0; % NG
	366	 65.0	 16.5	 59.0	 -26.0	 1.046665	 100.0	 1	 130.0	 0.0; % COW
	393	 0.0	 0.0	 0.0	 0.0	 1.0000025	 100.0	 0	 2.7	 0.0; % PEL
	412	 5.0	 0.0	 0.0	 0.0	 1.022224	 100.0	 1	 10.0	 0.0; % NG
	412	 5.75	 0.0	 0.0	 0.0	 1.022224	 100.0	 1	 11.5	 0.0; % PEL
	432	 0.0	 0.0	 0.0	 0.0	 1.0000025	 100.0	 0	 12.0	 0.0; % NG
	441	 0.0	 1.33	 10.96	 -11.99	 1.0000025	 100.0	 0	 34.25	 0.0; % NG
	448	 0.0	 0.71	 8.0	 -9.0	 1.015872	 100.0	 0	 25.0	 0.0; % COW
	463	 0.0	 0.0	 0.0	 0.0	 1.0079355	 100.0	 0	 2.4	 0.0; % PEL
	463	 8.0	 0.0	 0.0	 0.0	 1.0079355	 100.0	 1	 16.0	 0.0; % NG
	465	 14.0	 1.5	 6.0	 -3.0	 0.985555	 100.0	 1	 27.0	 1.0; % NG
	465	 14.0	 1.5	 6.0	 -3.0	 0.985555	 100.0	 1	 27.0	 1.0; % NG
	467	 24.5	 4.5	 19.0	 -10.0	 1.0079355	 100.0	 1	 48.0	 1.0; % NG
	471	 0.0	 -2.86	 6.0	 -6.0	 0.999999	 100.0	 0	 10.0	 0.0; % PEL
	471	 0.0	 -5.4	 5.4	 -5.4	 0.999999	 100.0	 0	 9.0	 0.0; % NG
	480	 0.0	 -2.66	 17.0	 -16.0	 0.999999	 100.0	 0	 27.0	 0.0; % PEL
	480	 0.0	 -2.66	 17.0	 -16.0	 0.999999	 100.0	 0	 27.0	 0.0; % PEL
	480	 0.0	 -2.66	 17.0	 -16.0	 0.999999	 100.0	 0	 27.0	 0.0; % NG
	492	 0.0	 -0.74	 8.0	 -17.0	 1.033334	 100.0	 0	 23.4	 0.0; % PEL
	509	 0.0	 0.34	 2.0	 -2.0	 0.999999	 100.0	 0	 4.0	 0.0; % PEL
	518	 0.0	 0.0	 0.0	 0.0	 1.015874	 100.0	 0	 10.0	 0.0; % PEL
	519	 6.0	 0.0	 0.0	 0.0	 1.022224	 100.0	 1	 12.0	 0.0; % COW
	529	 0.0	 -1.62	 4.8	 -4.8	 0.999999	 100.0	 0	 8.0	 0.0; % PEL
	529	 0.0	 -1.62	 4.8	 -4.8	 0.999999	 100.0	 0	 8.0	 0.0; % COW
	529	 4.0	 0.0	 4.8	 -4.8	 0.999999	 100.0	 1	 8.0	 0.0; % COW
	535	 6.0	 0.0	 0.0	 0.0	 1.022224	 100.0	 1	 12.0	 0.0; % NG
	535	 12.0	 0.0	 0.0	 0.0	 1.022224	 100.0	 1	 24.0	 0.0; % PEL
	544	 4.5	 1.95	 2.0	 1.9	 1.0000025	 100.0	 1	 9.0	 0.0; % COW
	547	 0.0	 0.0	 2.0	 0.0	 1.0000025	 100.0	 0	 12.0	 0.0; % NG
	569	 6.0	 0.0	 0.0	 0.0	 1.0158755	 100.0	 1	 12.0	 0.0; % PEL
	569	 15.0	 0.0	 0.0	 0.0	 1.0158755	 100.0	 1	 30.0	 0.0; % NG
	569	 5.75	 0.0	 0.0	 0.0	 1.0158755	 100.0	 1	 11.5	 0.0; % NG
	582	 8.0	 1.5	 7.0	 -4.0	 1.0000005	 100.0	 1	 16.0	 0.0; % NG
	584	 4.5	 0.0	 0.0	 0.0	 1.0158755	 100.0	 1	 9.0	 0.0; % NG
	585	 4.75	 0.0	 5.7	 -5.7	 0.999999	 100.0	 1	 9.5	 0.0; % NG
	588	 0.0	 0.1	 0.1	 -0.1	 1.000001	 100.0	 0	 1.0	 0.0; % PEL
	592	 0.0	 0.82	 10.0	 -10.0	 1.0000025	 100.0	 0	 21.0	 0.0; % NG
	599	 0.0	 0.03	 1.0	 -1.0	 1.015872	 100.0	 0	 6.1	 0.0; % NG
	609	 22.5	 0.0	 45.0	 -45.0	 0.975	 100.0	 1	 45.0	 0.0; % PEL
	609	 0.0	 -1.04	 45.0	 -45.0	 0.975	 100.0	 0	 45.0	 0.0; % NG
	611	 6.0	 0.0	 0.0	 0.0	 1.022224	 100.0	 1	 12.0	 0.0; % NG
	611	 6.0	 0.0	 0.0	 0.0	 1.022224	 100.0	 1	 12.0	 0.0; % COW
	611	 6.0	 0.0	 0.0	 0.0	 1.022224	 100.0	 1	 12.0	 0.0; % NG
	612	 17.5	 0.0	 0.0	 0.0	 1.0000005	 100.0	 1	 35.0	 0.0; % NG
	612	 0.0	 0.0	 0.0	 0.0	 1.0000005	 100.0	 0	 11.5	 0.0; % NG
	623	 0.0	 0.0	 8.3	 -8.3	 1.0111115	 100.0	 1	 8.3	 -8.3; % COW
	632	 0.0	 2.76	 4.0	 -4.0	 0.999999	 100.0	 0	 7.3	 0.0; % NG
	635	 0.0	 0.91	 7.0	 0.0	 1.015872	 100.0	 0	 15.0	 0.0; % NG
	635	 7.5	 3.5	 7.0	 0.0	 1.015872	 100.0	 1	 15.0	 0.0; % PEL
	640	 119.5	 -11.4	 80.0	 -102.8	 1.078945	 100.0	 1	 239.0	 0.0; % NG
	651	 0.0	 1.38	 7.0	 0.0	 1.0000025	 100.0	 0	 7.0	 0.0; % NG
	669	 6.0	 0.0	 0.0	 0.0	 1.022224	 100.0	 1	 12.0	 0.0; % NG
	669	 6.0	 0.0	 0.0	 0.0	 1.022224	 100.0	 1	 12.0	 0.0; % NG
	670	 3.75	 0.0	 0.0	 0.0	 1.027779	 100.0	 1	 7.5	 0.0; % NG
	670	 12.0	 0.0	 0.0	 0.0	 1.027779	 100.0	 1	 24.0	 0.0; % NG
	678	 0.0	 0.0	 0.0	 0.0	 1.022224	 100.0	 0	 6.6	 0.0; % PEL
	679	 6.0	 0.0	 0.0	 0.0	 1.022224	 100.0	 1	 12.0	 0.0; % NG
	683	 4.5	 0.5	 6.0	 -5.0	 0.9444445	 100.0	 1	 9.0	 0.0; % NG
	683	 4.5	 0.5	 6.0	 -5.0	 0.9444445	 100.0	 1	 9.0	 0.0; % NG
	683	 0.0	 -2.58	 8.0	 -5.0	 0.9444445	 100.0	 0	 11.0	 0.0; % COW
	683	 5.5	 1.5	 8.0	 -5.0	 0.9444445	 100.0	 1	 11.0	 0.0; % NG
	694	 16.175	 0.0	 0.0	 0.0	 1.022222	 100.0	 1	 32.35	 0.0; % NG
	694	 6.0	 0.0	 0.0	 0.0	 1.022222	 100.0	 1	 12.0	 0.0; % PEL
	694	 10.5	 0.0	 0.0	 0.0	 1.022222	 100.0	 1	 21.0	 0.0; % NG
	698	 18.5	 -1.0	 15.0	 -17.0	 0.975	 100.0	 1	 37.0	 0.0; % PEL
	698	 18.5	 -1.0	 15.0	 -17.0	 0.975	 100.0	 1	 37.0	 0.0; % NG
	697	 18.5	 0.0	 15.0	 -15.0	 0.975	 100.0	 1	 37.0	 0.0; % NG
	697	 18.5	 0.0	 15.0	 -15.0	 0.975	 100.0	 1	 37.0	 0.0; % PEL
	696	 18.5	 -1.0	 15.0	 -17.0	 0.975	 100.0	 1	 37.0	 0.0; % PEL
	696	 18.5	 -1.0	 15.0	 -17.0	 0.975	 100.0	 1	 37.0	 0.0; % NG
	704	 2.0	 0.0	 2.0	 -2.0	 0.9444445	 100.0	 1	 4.0	 0.0; % PEL
	704	 2.0	 0.0	 2.5	 -2.5	 0.9444445	 100.0	 1	 4.0	 0.0; % NG
	704	 2.85	 0.0	 3.0	 -3.0	 0.9444445	 100.0	 1	 5.7	 0.0; % NG
	704	 0.0	 -2.66	 6.0	 -5.0	 0.9444445	 100.0	 0	 8.5	 0.0; % COW
	731	 9.75	 0.0	 0.0	 0.0	 1.022224	 100.0	 1	 19.5	 0.0; % NG
	732	 19.5	 0.0	 18.0	 -18.0	 0.999999	 100.0	 1	 39.0	 0.0; % NG
	733	 5.75	 0.0	 0.0	 0.0	 1.0158755	 100.0	 1	 11.5	 0.0; % NG
	733	 16.0	 0.0	 0.0	 0.0	 1.0158755	 100.0	 1	 32.0	 0.0; % PEL
	735	 0.0	 0.0	 0.0	 0.0	 1.000001	 100.0	 0	 12.0	 0.0; % NG
	735	 16.0	 0.0	 0.0	 0.0	 1.000001	 100.0	 1	 32.0	 0.0; % NG
	736	 2.5	 0.0	 0.1	 -0.1	 1.0000025	 100.0	 1	 5.0	 0.0; % NG
	743	 3.35	 0.01	 3.72	 -3.7	 0.999999	 100.0	 1	 6.7	 0.0; % NG
	743	 2.8	 0.0	 3.0	 -3.0	 0.999999	 100.0	 1	 5.6	 0.0; % NG
	744	 13.3	 -2.38	 15.0	 -19.76	 0.999999	 100.0	 1	 26.6	 0.0; % NG
	745	 4.0	 0.0	 2.0	 -2.0	 1.022224	 100.0	 1	 7.0	 1.0; % NG
	750	 0.0	 -2.78	 3.0	 -3.0	 0.999999	 100.0	 0	 5.0	 -5.0; % NG
	757	 0.0	 1.81	 8.0	 -8.0	 0.9888895	 100.0	 0	 23.5	 0.0; % PEL
	759	 0.0	 0.0	 0.0	 0.0	 0.999999	 100.0	 0	 6.0	 0.0; % PEL
	760	 0.0	 0.0	 0.0	 0.0	 0.999999	 100.0	 0	 6.0	 0.0; % PEL
	759	 18.75	 2.0	 10.0	 -6.0	 0.999999	 100.0	 1	 37.5	 0.0; % NG
	760	 18.75	 2.0	 10.0	 -6.0	 0.999999	 100.0	 1	 37.5	 0.0; % NG
	761	 0.0	 0.06	 0.06	 -0.06	 0.825	 100.0	 0	 0.6	 0.0; % PEL
	761	 13.05	 0.0	 2.61	 -2.61	 0.825	 100.0	 1	 26.1	 0.0; % NG
	761	 0.0	 0.16	 0.16	 -0.16	 0.825	 100.0	 0	 1.6	 0.0; % PEL
	761	 0.0	 0.11	 0.11	 -0.11	 0.825	 100.0	 0	 1.1	 0.0; % PEL
	765	 0.0	 0.0	 0.0	 0.0	 1.0158755	 100.0	 0	 37.5	 0.0; % PEL
	765	 17.0	 0.0	 0.0	 0.0	 1.0158755	 100.0	 1	 34.0	 0.0; % NG
	785	 0.0	 -0.29	 26.0	 -26.0	 0.975	 100.0	 0	 8.0	 0.0; % NG
	785	 0.0	 -0.29	 26.0	 -26.0	 0.975	 100.0	 0	 15.0	 0.0; % COW
	786	 0.0	 -0.33	 26.0	 -26.0	 0.975	 100.0	 0	 19.0	 0.0; % PEL
	800	 15.5	 -1.0	 15.0	 -17.0	 0.975	 100.0	 1	 31.0	 0.0; % NG
	800	 15.5	 -1.0	 15.0	 -17.0	 0.975	 100.0	 1	 31.0	 0.0; % NG
	801	 15.5	 -1.0	 15.0	 -17.0	 0.975	 100.0	 1	 31.0	 0.0; % NG
	801	 15.5	 -1.0	 15.0	 -17.0	 0.975	 100.0	 1	 31.0	 0.0; % NG
	802	 15.5	 -1.0	 15.0	 -17.0	 0.975	 100.0	 1	 31.0	 0.0; % PEL
	802	 15.5	 -1.0	 15.0	 -17.0	 0.975	 100.0	 1	 31.0	 0.0; % NG
	806	 20.4	 0.0	 0.0	 0.0	 1.0000025	 100.0	 1	 40.8	 0.0; % NG
	814	 16.5	 -1.5	 6.0	 -9.0	 1.015872	 100.0	 1	 32.0	 1.0; % PEL
	814	 0.0	 0.0	 6.0	 -9.0	 1.015872	 100.0	 0	 32.0	 1.0; % PEL
	815	 16.5	 -1.5	 6.0	 -9.0	 1.015872	 100.0	 1	 32.0	 1.0; % NG
	815	 16.5	 -1.5	 6.0	 -9.0	 1.015872	 100.0	 1	 32.0	 1.0; % NG
	815	 16.5	 -1.5	 6.0	 -9.0	 1.015872	 100.0	 1	 32.0	 1.0; % NG
	815	 16.5	 -1.5	 6.0	 -9.0	 1.015872	 100.0	 1	 32.0	 1.0; % COW
	825	 0.0	 1.35	 3.0	 -3.0	 1.0000025	 100.0	 0	 13.0	 0.0; % NG
	825	 3.5	 0.0	 3.0	 -3.0	 1.0000025	 100.0	 1	 7.0	 0.0; % NG
	828	 0.0	 0.0	 0.0	 0.0	 1.022222	 100.0	 0	 2.4	 0.0; % PEL
	829	 13.5	 0.0	 10.0	 -10.0	 1.0000025	 100.0	 1	 27.0	 0.0; % NG
	830	 0.0	 -2.71	 10.0	 -10.0	 0.9444445	 100.0	 0	 20.0	 0.0; % COW
	832	 0.0	 1.34	 3.14	 -3.43	 1.0000025	 100.0	 0	 9.8	 0.0; % NG
...
];

%% generator cost data
%	2	startup	shutdown	n	c(n-1)	...	c0
mpc.gencost = [
2	0.0	0.0	3	0.2	34.719101	0.000000;	%	COW
2	0.0	0.0	3	0.2	27.265118	0.000000;	%	NG
2	0.0	0.0	3	0.2	44.019985	0.000000;	%	NG
2	0.0	0.0	3	0.2	125.857376	0.000000;	%	PEL
2	0.0	0.0	3	0.2	112.274748	0.000000;	%	PEL
2	0.0	0.0	3	0.2	16.070751	0.000000;	%	COW
2	0.0	0.0	3	0.2	119.380030	0.000000;	%	PEL
2	0.0	0.0	3	0.2	97.079386	0.000000;	%	PEL
2	0.0	0.0	3	0.2	34.189962	0.000000;	%	NG
2	0.0	0.0	3	0.2	123.259097	0.000000;	%	PEL
2	0.0	0.0	3	0.2	100.532072	0.000000;	%	PEL
2	0.0	0.0	3	0.2	33.396400	0.000000;	%	NG
2	0.0	0.0	3	0.2	18.678889	0.000000;	%	COW
2	0.0	0.0	3	0.2	54.908293	0.000000;	%	NG
2	0.0	0.0	3	0.2	42.955047	0.000000;	%	NG
2	0.0	0.0	3	0.2	22.606677	0.000000;	%	NG
2	0.0	0.0	3	0.2	31.523451	0.000000;	%	COW
2	0.0	0.0	3	0.2	39.638733	0.000000;	%	NG
2	0.0	0.0	3	0.2	117.834409	0.000000;	%	PEL
2	0.0	0.0	3	0.2	20.083247	0.000000;	%	NG
2	0.0	0.0	3	0.2	38.792247	0.000000;	%	NG
2	0.0	0.0	3	0.2	100.515196	0.000000;	%	PEL
2	0.0	0.0	3	0.2	23.151628	0.000000;	%	NG
2	0.0	0.0	3	0.2	29.074090	0.000000;	%	NG
2	0.0	0.0	3	0.2	24.793597	0.000000;	%	NG
2	0.0	0.0	3	0.2	27.357020	0.000000;	%	COW
2	0.0	0.0	3	0.2	109.277329	0.000000;	%	PEL
2	0.0	0.0	3	0.2	48.491471	0.000000;	%	NG
2	0.0	0.0	3	0.2	115.919519	0.000000;	%	PEL
2	0.0	0.0	3	0.2	35.940816	0.000000;	%	NG
2	0.0	0.0	3	0.2	17.055135	0.000000;	%	NG
2	0.0	0.0	3	0.2	17.788534	0.000000;	%	COW
2	0.0	0.0	3	0.2	25.292879	0.000000;	%	COW
2	0.0	0.0	3	0.2	53.056287	0.000000;	%	NG
2	0.0	0.0	3	0.2	117.368659	0.000000;	%	PEL
2	0.0	0.0	3	0.2	37.412142	0.000000;	%	NG
2	0.0	0.0	3	0.2	18.017630	0.000000;	%	NG
2	0.0	0.0	3	0.2	85.173223	0.000000;	%	PEL
2	0.0	0.0	3	0.2	38.124945	0.000000;	%	NG
2	0.0	0.0	3	0.2	121.165706	0.000000;	%	PEL
2	0.0	0.0	3	0.2	31.841243	0.000000;	%	NG
2	0.0	0.0	3	0.2	31.416093	0.000000;	%	NG
2	0.0	0.0	3	0.2	89.218155	0.000000;	%	PEL
2	0.0	0.0	3	0.2	40.960757	0.000000;	%	NG
2	0.0	0.0	3	0.2	119.606964	0.000000;	%	PEL
2	0.0	0.0	3	0.2	118.028872	0.000000;	%	PEL
2	0.0	0.0	3	0.2	128.292721	0.000000;	%	PEL
2	0.0	0.0	3	0.2	24.252739	0.000000;	%	NG
2	0.0	0.0	3	0.2	26.604131	0.000000;	%	NG
2	0.0	0.0	3	0.2	112.053547	0.000000;	%	PEL
2	0.0	0.0	3	0.2	28.695640	0.000000;	%	NG
2	0.0	0.0	3	0.2	110.917974	0.000000;	%	PEL
2	0.0	0.0	3	0.2	98.578795	0.000000;	%	PEL
2	0.0	0.0	3	0.2	34.549157	0.000000;	%	NG
2	0.0	0.0	3	0.2	24.612219	0.000000;	%	NG
2	0.0	0.0	3	0.2	61.443741	0.000000;	%	NG
2	0.0	0.0	3	0.2	44.179175	0.000000;	%	NG
2	0.0	0.0	3	0.2	36.208485	0.000000;	%	NG
2	0.0	0.0	3	0.2	1.662592	0.000000;	%	COW
2	0.0	0.0	3	0.2	23.923511	0.000000;	%	COW
2	0.0	0.0	3	0.2	126.105536	0.000000;	%	PEL
2	0.0	0.0	3	0.2	44.572834	0.000000;	%	NG
2	0.0	0.0	3	0.2	14.215485	0.000000;	%	NG
2	0.0	0.0	3	0.2	29.060489	0.000000;	%	NG
2	0.0	0.0	3	0.2	38.353876	0.000000;	%	NG
2	0.0	0.0	3	0.2	34.437419	0.000000;	%	NG
2	0.0	0.0	3	0.2	38.404293	0.000000;	%	NG
	2	 0.0	 0.0	 3	   0.000000	   0.000000	   0.000000; % SYNC
	2	 0.0	 0.0	 3	   0.000000	   0.000000	   0.000000; % SYNC
2	0.0	0.0	3	0.2	37.769362	0.000000;	%	NG
2	0.0	0.0	3	0.2	33.537122	0.000000;	%	NG
2	0.0	0.0	3	0.2	111.286591	0.000000;	%	PEL
2	0.0	0.0	3	0.2	23.822099	0.000000;	%	COW
2	0.0	0.0	3	0.2	24.186204	0.000000;	%	NG
2	0.0	0.0	3	0.2	19.176649	0.000000;	%	NG
2	0.0	0.0	3	0.2	122.465506	0.000000;	%	PEL
2	0.0	0.0	3	0.2	106.703695	0.000000;	%	PEL
2	0.0	0.0	3	0.2	107.728291	0.000000;	%	PEL
2	0.0	0.0	3	0.2	115.467444	0.000000;	%	PEL
2	0.0	0.0	3	0.2	32.860206	0.000000;	%	NG
2	0.0	0.0	3	0.2	24.435021	0.000000;	%	COW
2	0.0	0.0	3	0.2	23.746964	0.000000;	%	NG
2	0.0	0.0	3	0.2	13.628857	0.000000;	%	COW
2	0.0	0.0	3	0.2	116.967755	0.000000;	%	PEL
2	0.0	0.0	3	0.2	18.652095	0.000000;	%	NG
2	0.0	0.0	3	0.2	111.581812	0.000000;	%	PEL
2	0.0	0.0	3	0.2	35.235955	0.000000;	%	NG
2	0.0	0.0	3	0.2	31.468556	0.000000;	%	NG
2	0.0	0.0	3	0.2	17.794314	0.000000;	%	COW
2	0.0	0.0	3	0.2	105.683734	0.000000;	%	PEL
2	0.0	0.0	3	0.2	48.255781	0.000000;	%	NG
2	0.0	0.0	3	0.2	53.838414	0.000000;	%	NG
2	0.0	0.0	3	0.2	37.254685	0.000000;	%	NG
2	0.0	0.0	3	0.2	35.434555	0.000000;	%	NG
2	0.0	0.0	3	0.2	98.508658	0.000000;	%	PEL
2	0.0	0.0	3	0.2	39.539658	0.000000;	%	NG
2	0.0	0.0	3	0.2	101.377381	0.000000;	%	PEL
2	0.0	0.0	3	0.2	130.391311	0.000000;	%	PEL
2	0.0	0.0	3	0.2	38.239645	0.000000;	%	NG
2	0.0	0.0	3	0.2	107.473273	0.000000;	%	PEL
2	0.0	0.0	3	0.2	107.604090	0.000000;	%	PEL
2	0.0	0.0	3	0.2	106.271036	0.000000;	%	PEL
2	0.0	0.0	3	0.2	19.429866	0.000000;	%	COW
2	0.0	0.0	3	0.2	94.368814	0.000000;	%	PEL
2	0.0	0.0	3	0.2	16.652288	0.000000;	%	COW
2	0.0	0.0	3	0.2	24.600913	0.000000;	%	COW
2	0.0	0.0	3	0.2	32.654925	0.000000;	%	NG
2	0.0	0.0	3	0.2	117.129387	0.000000;	%	PEL
2	0.0	0.0	3	0.2	41.531880	0.000000;	%	COW
2	0.0	0.0	3	0.2	23.021147	0.000000;	%	NG
2	0.0	0.0	3	0.2	118.716028	0.000000;	%	PEL
2	0.0	0.0	3	0.2	38.794253	0.000000;	%	NG
2	0.0	0.0	3	0.2	22.764542	0.000000;	%	NG
2	0.0	0.0	3	0.2	46.058639	0.000000;	%	NG
2	0.0	0.0	3	0.2	47.141387	0.000000;	%	NG
2	0.0	0.0	3	0.2	34.299414	0.000000;	%	NG
2	0.0	0.0	3	0.2	122.796127	0.000000;	%	PEL
2	0.0	0.0	3	0.2	28.249014	0.000000;	%	NG
2	0.0	0.0	3	0.2	37.079776	0.000000;	%	NG
2	0.0	0.0	3	0.2	105.250372	0.000000;	%	PEL
2	0.0	0.0	3	0.2	37.195589	0.000000;	%	NG
2	0.0	0.0	3	0.2	46.853672	0.000000;	%	NG
2	0.0	0.0	3	0.2	19.301367	0.000000;	%	COW
2	0.0	0.0	3	0.2	56.566140	0.000000;	%	NG
2	0.0	0.0	3	0.2	36.436204	0.000000;	%	NG
2	0.0	0.0	3	0.2	25.587332	0.000000;	%	NG
2	0.0	0.0	3	0.2	17.976528	0.000000;	%	COW
2	0.0	0.0	3	0.2	22.670915	0.000000;	%	NG
2	0.0	0.0	3	0.2	6.815549	0.000000;	%	NG
2	0.0	0.0	3	0.2	99.511273	0.000000;	%	PEL
2	0.0	0.0	3	0.2	39.593521	0.000000;	%	NG
2	0.0	0.0	3	0.2	50.720267	0.000000;	%	NG
2	0.0	0.0	3	0.2	48.945291	0.000000;	%	NG
2	0.0	0.0	3	0.2	20.737080	0.000000;	%	NG
2	0.0	0.0	3	0.2	40.340923	0.000000;	%	NG
2	0.0	0.0	3	0.2	42.906874	0.000000;	%	NG
2	0.0	0.0	3	0.2	124.031387	0.000000;	%	PEL
2	0.0	0.0	3	0.2	24.544045	0.000000;	%	NG
2	0.0	0.0	3	0.2	33.300055	0.000000;	%	NG
2	0.0	0.0	3	0.2	33.258305	0.000000;	%	NG
2	0.0	0.0	3	0.2	30.190997	0.000000;	%	COW
2	0.0	0.0	3	0.2	24.450705	0.000000;	%	NG
2	0.0	0.0	3	0.2	29.794383	0.000000;	%	NG
2	0.0	0.0	3	0.2	119.788062	0.000000;	%	PEL
2	0.0	0.0	3	0.2	47.330962	0.000000;	%	NG
2	0.0	0.0	3	0.2	122.055981	0.000000;	%	PEL
2	0.0	0.0	3	0.2	25.547072	0.000000;	%	NG
2	0.0	0.0	3	0.2	54.728876	0.000000;	%	NG
2	0.0	0.0	3	0.2	127.485755	0.000000;	%	PEL
2	0.0	0.0	3	0.2	112.084227	0.000000;	%	PEL
2	0.0	0.0	3	0.2	36.313139	0.000000;	%	NG
2	0.0	0.0	3	0.2	104.210828	0.000000;	%	PEL
2	0.0	0.0	3	0.2	44.604391	0.000000;	%	NG
2	0.0	0.0	3	0.2	31.444437	0.000000;	%	NG
2	0.0	0.0	3	0.2	5.771394	0.000000;	%	COW
2	0.0	0.0	3	0.2	28.216057	0.000000;	%	NG
2	0.0	0.0	3	0.2	48.033731	0.000000;	%	NG
2	0.0	0.0	3	0.2	28.216850	0.000000;	%	NG
2	0.0	0.0	3	0.2	117.390466	0.000000;	%	PEL
2	0.0	0.0	3	0.2	21.537687	0.000000;	%	NG
2	0.0	0.0	3	0.2	32.394466	0.000000;	%	NG
2	0.0	0.0	3	0.2	50.218830	0.000000;	%	NG
2	0.0	0.0	3	0.2	36.842194	0.000000;	%	NG
2	0.0	0.0	3	0.2	44.058422	0.000000;	%	NG
2	0.0	0.0	3	0.2	40.551368	0.000000;	%	NG
2	0.0	0.0	3	0.2	32.707886	0.000000;	%	NG
2	0.0	0.0	3	0.2	27.375807	0.000000;	%	NG
2	0.0	0.0	3	0.2	105.687688	0.000000;	%	PEL
2	0.0	0.0	3	0.2	109.783294	0.000000;	%	PEL
2	0.0	0.0	3	0.2	117.473966	0.000000;	%	PEL
2	0.0	0.0	3	0.2	36.049845	0.000000;	%	NG
2	0.0	0.0	3	0.2	28.661350	0.000000;	%	NG
2	0.0	0.0	3	0.2	105.862811	0.000000;	%	PEL
2	0.0	0.0	3	0.2	42.187626	0.000000;	%	NG
2	0.0	0.0	3	0.2	104.030831	0.000000;	%	PEL
2	0.0	0.0	3	0.2	102.392307	0.000000;	%	PEL
2	0.0	0.0	3	0.2	97.926813	0.000000;	%	PEL
2	0.0	0.0	3	0.2	29.165960	0.000000;	%	NG
2	0.0	0.0	3	0.2	31.807188	0.000000;	%	NG
2	0.0	0.0	3	0.2	17.108732	0.000000;	%	COW
2	0.0	0.0	3	0.2	100.937756	0.000000;	%	PEL
2	0.0	0.0	3	0.2	33.764707	0.000000;	%	NG
2	0.0	0.0	3	0.2	53.574396	0.000000;	%	NG
2	0.0	0.0	3	0.2	29.480994	0.000000;	%	NG
2	0.0	0.0	3	0.2	40.661678	0.000000;	%	NG
2	0.0	0.0	3	0.2	122.879595	0.000000;	%	PEL
2	0.0	0.0	3	0.2	41.468964	0.000000;	%	NG
2	0.0	0.0	3	0.2	27.764040	0.000000;	%	NG
2	0.0	0.0	3	0.2	92.614130	0.000000;	%	PEL
2	0.0	0.0	3	0.2	107.769661	0.000000;	%	PEL
2	0.0	0.0	3	0.2	60.691391	0.000000;	%	NG
2	0.0	0.0	3	0.2	23.594703	0.000000;	%	NG
2	0.0	0.0	3	0.2	35.610774	0.000000;	%	NG
2	0.0	0.0	3	0.2	21.473187	0.000000;	%	COW
2	0.0	0.0	3	0.2	38.395905	0.000000;	%	NG
2	0.0	0.0	3	0.2	25.701638	0.000000;	%	NG
2	0.0	0.0	3	0.2	109.084654	0.000000;	%	PEL
2	0.0	0.0	3	0.2	29.597860	0.000000;	%	NG
2	0.0	0.0	3	0.2	29.066900	0.000000;	%	COW
2	0.0	0.0	3	0.2	46.605613	0.000000;	%	NG
...
];

%% storage data
%	bus	energy	energy_rating	charge_rating	discharge_rating	thermal_rating	qmin	qmax	r	x	standby_loss	status
mpc.storage = [
	5991	0.0	0.0	1.00	4597.3500	2298.6750	1655.0460	0.9	0.85	1000	-1000	1000	0.1	0.01	0	0	1;
	6183	0.0	0.0	1.00	1615.2000	807.6000	581.4720	0.9	0.85	1000	-1000	1000	0.1	0.01	0	0	1;
	6058	0.0	0.0	1.00	1286.2500	643.1250	463.0500	0.9	0.85	1000	-1000	1000	0.1	0.01	0	0	1;
	5968	0.0	0.0	1.00	1211.7000	605.8500	436.2120	0.9	0.85	1000	-1000	1000	0.1	0.01	0	0	1;
	6176	0.0	0.0	1.00	1167.3000	583.6500	420.2280	0.9	0.85	1000	-1000	1000	0.1	0.01	0	0	1;
	6087	0.0	0.0	1.00	1009.3500	504.6750	363.3660	0.9	0.85	1000	-1000	1000	0.1	0.01	0	0	1;
	6037	0.0	0.0	1.00	926.4000	463.2000	333.5040	0.9	0.85	1000	-1000	1000	0.1	0.01	0	0	1;
	6236	0.0	0.0	1.00	892.8000	446.4000	321.4080	0.9	0.85	1000	-1000	1000	0.1	0.01	0	0	1;
	6067	0.0	0.0	1.00	868.5000	434.2500	312.6600	0.9	0.85	1000	-1000	1000	0.1	0.01	0	0	1;
	5978	0.0	0.0	1.00	852.3000	426.1500	306.8280	0.9	0.85	1000	-1000	1000	0.1	0.01	0	0	1;
	5993	0.0	0.0	1.00	845.1000	422.5500	304.2360	0.9	0.85	1000	-1000	1000	0.1	0.01	0	0	1;
	6029	0.0	0.0	1.00	768.0000	384.0000	276.4800	0.9	0.85	1000	-1000	1000	0.1	0.01	0	0	1;
	6121	0.0	0.0	1.00	746.2500	373.1250	268.6500	0.9	0.85	1000	-1000	1000	0.1	0.01	0	0	1;
	5985	0.0	0.0	1.00	694.0500	347.0250	249.8580	0.9	0.85	1000	-1000	1000	0.1	0.01	0	0	1;
	6134	0.0	0.0	1.00	649.5000	324.7500	233.8200	0.9	0.85	1000	-1000	1000	0.1	0.01	0	0	1;
	6062	0.0	0.0	1.00	646.8000	323.4000	232.8480	0.9	0.85	1000	-1000	1000	0.1	0.01	0	0	1;
	6220	0.0	0.0	1.00	638.1000	319.0500	229.7160	0.9	0.85	1000	-1000	1000	0.1	0.01	0	0	1;
	6125	0.0	0.0	1.00	632.4000	316.2000	227.6640	0.9	0.85	1000	-1000	1000	0.1	0.01	0	0	1;
	6099	0.0	0.0	1.00	620.4000	310.2000	223.3440	0.9	0.85	1000	-1000	1000	0.1	0.01	0	0	1;
	2139	0.0	0.0	1.00	614.4000	307.2000	221.1840	0.9	0.85	1000	-1000	1000	0.1	0.01	0	0	1;
	5994	0.0	0.0	1.00	610.3500	305.1750	219.7260	0.9	0.85	1000	-1000	1000	0.1	0.01	0	0	1;
	6139	0.0	0.0	1.00	575.2500	287.6250	207.0900	0.9	0.85	1000	-1000	1000	0.1	0.01	0	0	1;
	6254	0.0	0.0	1.00	565.3500	282.6750	203.5260	0.9	0.85	1000	-1000	1000	0.1	0.01	0	0	1;
	6031	0.0	0.0	1.00	554.8500	277.4250	199.7460	0.9	0.85	1000	-1000	1000	0.1	0.01	0	0	1;
	5997	0.0	0.0	1.00	550.9500	275.4750	198.3420	0.9	0.85	1000	-1000	1000	0.1	0.01	0	0	1;
	6111	0.0	0.0	1.00	537.7500	268.8750	193.5900	0.9	0.85	1000	-1000	1000	0.1	0.01	0	0	1;
	6028	0.0	0.0	1.00	524.8500	262.4250	188.9460	0.9	0.85	1000	-1000	1000	0.1	0.01	0	0	1;
	6185	0.0	0.0	1.00	509.7000	254.8500	183.4920	0.9	0.85	1000	-1000	1000	0.1	0.01	0	0	1;
	3764	0.0	0.0	1.00	496.8000	248.4000	178.8480	0.9	0.85	1000	-1000	1000	0.1	0.01	0	0	1;
	6080	0.0	0.0	1.00	494.8500	247.4250	178.1460	0.9	0.85	1000	-1000	1000	0.1	0.01	0	0	1;
	6216	0.0	0.0	1.00	488.2500	244.1250	175.7700	0.9	0.85	1000	-1000	1000	0.1	0.01	0	0	1;
	6174	0.0	0.0	1.00	481.5000	240.7500	173.3400	0.9	0.85	1000	-1000	1000	0.1	0.01	0	0	1;
	6039	0.0	0.0	1.00	467.5500	233.7750	168.3180	0.9	0.85	1000	-1000	1000	0.1	0.01	0	0	1;
	6044	0.0	0.0	1.00	454.2000	227.1000	163.5120	0.9	0.85	1000	-1000	1000	0.1	0.01	0	0	1;
	6138	0.0	0.0	1.00	451.9500	225.9750	162.7020	0.9	0.85	1000	-1000	1000	0.1	0.01	0	0	1;
	6146	0.0	0.0	1.00	446.2500	223.1250	160.6500	0.9	0.85	1000	-1000	1000	0.1	0.01	0	0	1;
	6155	0.0	0.0	1.00	426.0000	213.0000	153.3600	0.9	0.85	1000	-1000	1000	0.1	0.01	0	0	1;
	6075	0.0	0.0	1.00	416.1000	208.0500	149.7960	0.9	0.85	1000	-1000	1000	0.1	0.01	0	0	1;
	6184	0.0	0.0	1.00	403.6500	201.8250	145.3140	0.9	0.85	1000	-1000	1000	0.1	0.01	0	0	1;
	6002	0.0	0.0	1.00	400.0500	200.0250	144.0180	0.9	0.85	1000	-1000	1000	0.1	0.01	0	0	1;
	5974	0.0	0.0	1.00	394.8000	197.4000	142.1280	0.9	0.85	1000	-1000	1000	0.1	0.01	0	0	1;
	5984	0.0	0.0	1.00	384.3000	192.1500	138.3480	0.9	0.85	1000	-1000	1000	0.1	0.01	0	0	1;
	6253	0.0	0.0	1.00	384.3000	192.1500	138.3480	0.9	0.85	1000	-1000	1000	0.1	0.01	0	0	1;
	6116	0.0	0.0	1.00	379.3500	189.6750	136.5660	0.9	0.85	1000	-1000	1000	0.1	0.01	0	0	1;
	6119	0.0	0.0	1.00	378.7500	189.3750	136.3500	0.9	0.85	1000	-1000	1000	0.1	0.01	0	0	1;
	6175	0.0	0.0	1.00	373.5000	186.7500	134.4600	0.9	0.85	1000	-1000	1000	0.1	0.01	0	0	1;
	6124	0.0	0.0	1.00	370.6500	185.3250	133.4340	0.9	0.85	1000	-1000	1000	0.1	0.01	0	0	1;
	6105	0.0	0.0	1.00	366.3000	183.1500	131.8680	0.9	0.85	1000	-1000	1000	0.1	0.01	0	0	1;
	6086	0.0	0.0	1.00	358.2000	179.1000	128.9520	0.9	0.85	1000	-1000	1000	0.1	0.01	0	0	1;
	6218	0.0	0.0	1.00	348.6000	174.3000	125.4960	0.9	0.85	1000	-1000	1000	0.1	0.01	0	0	1;
	6110	0.0	0.0	1.00	348.1500	174.0750	125.3340	0.9	0.85	1000	-1000	1000	0.1	0.01	0	0	1;
	5979	0.0	0.0	1.00	333.9000	166.9500	120.2040	0.9	0.85	1000	-1000	1000	0.1	0.01	0	0	1;
	6141	0.0	0.0	1.00	332.8500	166.4250	119.8260	0.9	0.85	1000	-1000	1000	0.1	0.01	0	0	1;
	6182	0.0	0.0	1.00	328.9500	164.4750	118.4220	0.9	0.85	1000	-1000	1000	0.1	0.01	0	0	1;
	6019	0.0	0.0	1.00	321.7500	160.8750	115.8300	0.9	0.85	1000	-1000	1000	0.1	0.01	0	0	1;
	6193	0.0	0.0	1.00	320.1000	160.0500	115.2360	0.9	0.85	1000	-1000	1000	0.1	0.01	0	0	1;
	6251	0.0	0.0	1.00	319.5000	159.7500	115.0200	0.9	0.85	1000	-1000	1000	0.1	0.01	0	0	1;
	6172	0.0	0.0	1.00	316.2000	158.1000	113.8320	0.9	0.85	1000	-1000	1000	0.1	0.01	0	0	1;
	6249	0.0	0.0	1.00	315.3000	157.6500	113.5080	0.9	0.85	1000	-1000	1000	0.1	0.01	0	0	1;
	6192	0.0	0.0	1.00	313.9500	156.9750	113.0220	0.9	0.85	1000	-1000	1000	0.1	0.01	0	0	1;
	6126	0.0	0.0	1.00	309.6000	154.8000	111.4560	0.9	0.85	1000	-1000	1000	0.1	0.01	0	0	1;
	6229	0.0	0.0	1.00	306.9000	153.4500	110.4840	0.9	0.85	1000	-1000	1000	0.1	0.01	0	0	1;
	6109	0.0	0.0	1.00	305.1000	152.5500	109.8360	0.9	0.85	1000	-1000	1000	0.1	0.01	0	0	1;
	6140	0.0	0.0	1.00	300.0000	150.0000	108.0000	0.9	0.85	1000	-1000	1000	0.1	0.01	0	0	1;
	6063	0.0	0.0	1.00	296.5500	148.2750	106.7580	0.9	0.85	1000	-1000	1000	0.1	0.01	0	0	1;
	6113	0.0	0.0	1.00	293.1000	146.5500	105.5160	0.9	0.85	1000	-1000	1000	0.1	0.01	0	0	1;
	6180	0.0	0.0	1.00	285.0000	142.5000	102.6000	0.9	0.85	1000	-1000	1000	0.1	0.01	0	0	1;
	6018	0.0	0.0	1.00	275.4000	137.7000	99.1440	0.9	0.85	1000	-1000	1000	0.1	0.01	0	0	1;
	6088	0.0	0.0	1.00	273.0000	136.5000	98.2800	0.9	0.85	1000	-1000	1000	0.1	0.01	0	0	1;
	6032	0.0	0.0	1.00	269.1000	134.5500	96.8760	0.9	0.85	1000	-1000	1000	0.1	0.01	0	0	1;
	6171	0.0	0.0	1.00	267.4500	133.7250	96.2820	0.9	0.85	1000	-1000	1000	0.1	0.01	0	0	1;
	6091	0.0	0.0	1.00	267.0000	133.5000	96.1200	0.9	0.85	1000	-1000	1000	0.1	0.01	0	0	1;
	3410	0.0	0.0	1.00	261.3000	130.6500	94.0680	0.9	0.85	1000	-1000	1000	0.1	0.01	0	0	1;
	6250	0.0	0.0	1.00	259.9500	129.9750	93.5820	0.9	0.85	1000	-1000	1000	0.1	0.01	0	0	1;
	6228	0.0	0.0	1.00	258.9000	129.4500	93.2040	0.9	0.85	1000	-1000	1000	0.1	0.01	0	0	1;
	5046	0.0	0.0	1.00	257.7000	128.8500	92.7720	0.9	0.85	1000	-1000	1000	0.1	0.01	0	0	1;
	6056	0.0	0.0	1.00	246.0000	123.0000	88.5600	0.9	0.85	1000	-1000	1000	0.1	0.01	0	0	1;
	4583	0.0	0.0	1.00	239.2500	119.6250	86.1300	0.9	0.85	1000	-1000	1000	0.1	0.01	0	0	1;
	2951	0.0	0.0	1.00	236.4000	118.2000	85.1040	0.9	0.85	1000	-1000	1000	0.1	0.01	0	0	1;
	6055	0.0	0.0	1.00	233.5500	116.7750	84.0780	0.9	0.85	1000	-1000	1000	0.1	0.01	0	0	1;
	4348	0.0	0.0	1.00	230.7000	115.3500	83.0520	0.9	0.85	1000	-1000	1000	0.1	0.01	0	0	1;
	6083	0.0	0.0	1.00	230.1000	115.0500	82.8360	0.9	0.85	1000	-1000	1000	0.1	0.01	0	0	1;
	6013	0.0	0.0	1.00	227.5500	113.7750	81.9180	0.9	0.85	1000	-1000	1000	0.1	0.01	0	0	1;
	6054	0.0	0.0	1.00	226.0500	113.0250	81.3780	0.9	0.85	1000	-1000	1000	0.1	0.01	0	0	1;
	6052	0.0	0.0	1.00	225.1500	112.5750	81.0540	0.9	0.85	1000	-1000	1000	0.1	0.01	0	0	1;
	6238	0.0	0.0	1.00	221.5500	110.7750	79.7580	0.9	0.85	1000	-1000	1000	0.1	0.01	0	0	1;
	6011	0.0	0.0	1.00	221.2500	110.6250	79.6500	0.9	0.85	1000	-1000	1000	0.1	0.01	0	0	1;
	1503	0.0	0.0	1.00	220.5000	110.2500	79.3800	0.9	0.85	1000	-1000	1000	0.1	0.01	0	0	1;
	5996	0.0	0.0	1.00	216.0000	108.0000	77.7600	0.9	0.85	1000	-1000	1000	0.1	0.01	0	0	1;
	6033	0.0	0.0	1.00	216.0000	108.0000	77.7600	0.9	0.85	1000	-1000	1000	0.1	0.01	0	0	1;
	6077	0.0	0.0	1.00	212.7000	106.3500	76.5720	0.9	0.85	1000	-1000	1000	0.1	0.01	0	0	1;
	6144	0.0	0.0	1.00	208.0500	104.0250	74.8980	0.9	0.85	1000	-1000	1000	0.1	0.01	0	0	1;
	3217	0.0	0.0	1.00	204.6000	102.3000	73.6560	0.9	0.85	1000	-1000	1000	0.1	0.01	0	0	1;
	1189	0.0	0.0	1.00	202.9500	101.4750	73.0620	0.9	0.85	1000	-1000	1000	0.1	0.01	0	0	1;
	589	0.0	0.0	1.00	199.5000	99.7500	71.8200	0.9	0.85	1000	-1000	1000	0.1	0.01	0	0	1;
	6190	0.0	0.0	1.00	199.5000	99.7500	71.8200	0.9	0.85	1000	-1000	1000	0.1	0.01	0	0	1;
	6026	0.0	0.0	1.00	199.0500	99.5250	71.6580	0.9	0.85	1000	-1000	1000	0.1	0.01	0	0	1;
	6130	0.0	0.0	1.00	198.0000	99.0000	71.2800	0.9	0.85	1000	-1000	1000	0.1	0.01	0	0	1;
	58	0.0	0.0	1.00	195.9000	97.9500	70.5240	0.9	0.85	1000	-1000	1000	0.1	0.01	0	0	1;
	5035	0.0	0.0	1.00	192.4500	96.2250	69.2820	0.9	0.85	1000	-1000	1000	0.1	0.01	0	0	1;
	3367	0.0	0.0	1.00	185.7000	92.8500	66.8520	0.9	0.85	1000	-1000	1000	0.1	0.01	0	0	1;
	6079	0.0	0.0	1.00	181.3500	90.6750	65.2860	0.9	0.85	1000	-1000	1000	0.1	0.01	0	0	1;
	4942	0.0	0.0	1.00	181.0500	90.5250	65.1780	0.9	0.85	1000	-1000	1000	0.1	0.01	0	0	1;
	3008	0.0	0.0	1.00	180.0000	90.0000	64.8000	0.9	0.85	1000	-1000	1000	0.1	0.01	0	0	1;
	6035	0.0	0.0	1.00	178.3500	89.1750	64.2060	0.9	0.85	1000	-1000	1000	0.1	0.01	0	0	1;
	1603	0.0	0.0	1.00	175.3500	87.6750	63.1260	0.9	0.85	1000	-1000	1000	0.1	0.01	0	0	1;
	5958	0.0	0.0	1.00	175.3500	87.6750	63.1260	0.9	0.85	1000	-1000	1000	0.1	0.01	0	0	1;
	4041	0.0	0.0	1.00	174.9000	87.4500	62.9640	0.9	0.85	1000	-1000	1000	0.1	0.01	0	0	1;
	943	0.0	0.0	1.00	173.7000	86.8500	62.5320	0.9	0.85	1000	-1000	1000	0.1	0.01	0	0	1;
	3273	0.0	0.0	1.00	173.5500	86.7750	62.4780	0.9	0.85	1000	-1000	1000	0.1	0.01	0	0	1;
	4571	0.0	0.0	1.00	173.5500	86.7750	62.4780	0.9	0.85	1000	-1000	1000	0.1	0.01	0	0	1;
	4560	0.0	0.0	1.00	171.9000	85.9500	61.8840	0.9	0.85	1000	-1000	1000	0.1	0.01	0	0	1;
	4763	0.0	0.0	1.00	170.4000	85.2000	61.3440	0.9	0.85	1000	-1000	1000	0.1	0.01	0	0	1;
	4877	0.0	0.0	1.00	164.1000	82.0500	59.0760	0.9	0.85	1000	-1000	1000	0.1	0.01	0	0	1;
	5977	0.0	0.0	1.00	163.8000	81.9000	58.9680	0.9	0.85	1000	-1000	1000	0.1	0.01	0	0	1;
	2015	0.0	0.0	1.00	163.0500	81.5250	58.6980	0.9	0.85	1000	-1000	1000	0.1	0.01	0	0	1;
	5982	0.0	0.0	1.00	161.5500	80.7750	58.1580	0.9	0.85	1000	-1000	1000	0.1	0.01	0	0	1;
	6168	0.0	0.0	1.00	160.5000	80.2500	57.7800	0.9	0.85	1000	-1000	1000	0.1	0.01	0	0	1;
	5995	0.0	0.0	1.00	159.7500	79.8750	57.5100	0.9	0.85	1000	-1000	1000	0.1	0.01	0	0	1;
	5965	0.0	0.0	1.00	158.4000	79.2000	57.0240	0.9	0.85	1000	-1000	1000	0.1	0.01	0	0	1;
	1375	0.0	0.0	1.00	156.6000	78.3000	56.3760	0.9	0.85	1000	-1000	1000	0.1	0.01	0	0	1;
	2796	0.0	0.0	1.00	156.4500	78.2250	56.3220	0.9	0.85	1000	-1000	1000	0.1	0.01	0	0	1;
	6127	0.0	0.0	1.00	155.1000	77.5500	55.8360	0.9	0.85	1000	-1000	1000	0.1	0.01	0	0	1;
	3713	0.0	0.0	1.00	154.6500	77.3250	55.6740	0.9	0.85	1000	-1000	1000	0.1	0.01	0	0	1;
	131	0.0	0.0	1.00	154.5000	77.2500	55.6200	0.9	0.85	1000	-1000	1000	0.1	0.01	0	0	1;
	3163	0.0	0.0	1.00	153.3000	76.6500	55.1880	0.9	0.85	1000	-1000	1000	0.1	0.01	0	0	1;
	6221	0.0	0.0	1.00	152.5500	76.2750	54.9180	0.9	0.85	1000	-1000	1000	0.1	0.01	0	0	1;
	5970	0.0	0.0	1.00	152.2500	76.1250	54.8100	0.9	0.85	1000	-1000	1000	0.1	0.01	0	0	1;
	6215	0.0	0.0	1.00	151.9500	75.9750	54.7020	0.9	0.85	1000	-1000	1000	0.1	0.01	0	0	1;
	6233	0.0	0.0	1.00	151.3500	75.6750	54.4860	0.9	0.85	1000	-1000	1000	0.1	0.01	0	0	1;
	3212	0.0	0.0	1.00	151.0500	75.5250	54.3780	0.9	0.85	1000	-1000	1000	0.1	0.01	0	0	1;
	4211	0.0	0.0	1.00	150.9000	75.4500	54.3240	0.9	0.85	1000	-1000	1000	0.1	0.01	0	0	1;
	2205	0.0	0.0	1.00	149.8500	74.9250	53.9460	0.9	0.85	1000	-1000	1000	0.1	0.01	0	0	1;
	6188	0.0	0.0	1.00	147.7500	73.8750	53.1900	0.9	0.85	1000	-1000	1000	0.1	0.01	0	0	1;
	5992	0.0	0.0	1.00	147.0000	73.5000	52.9200	0.9	0.85	1000	-1000	1000	0.1	0.01	0	0	1;
	431	0.0	0.0	1.00	144.6000	72.3000	52.0560	0.9	0.85	1000	-1000	1000	0.1	0.01	0	0	1;
	6036	0.0	0.0	1.00	143.1000	71.5500	51.5160	0.9	0.85	1000	-1000	1000	0.1	0.01	0	0	1;
	6012	0.0	0.0	1.00	142.2000	71.1000	51.1920	0.9	0.85	1000	-1000	1000	0.1	0.01	0	0	1;
	3967	0.0	0.0	1.00	141.4500	70.7250	50.9220	0.9	0.85	1000	-1000	1000	0.1	0.01	0	0	1;
	6227	0.0	0.0	1.00	139.5000	69.7500	50.2200	0.9	0.85	1000	-1000	1000	0.1	0.01	0	0	1;
	1012	0.0	0.0	1.00	137.4000	68.7000	49.4640	0.9	0.85	1000	-1000	1000	0.1	0.01	0	0	1;
	4400	0.0	0.0	1.00	137.4000	68.7000	49.4640	0.9	0.85	1000	-1000	1000	0.1	0.01	0	0	1;
	3690	0.0	0.0	1.00	137.1000	68.5500	49.3560	0.9	0.85	1000	-1000	1000	0.1	0.01	0	0	1;
	5990	0.0	0.0	1.00	137.1000	68.5500	49.3560	0.9	0.85	1000	-1000	1000	0.1	0.01	0	0	1;
	2437	0.0	0.0	1.00	136.8000	68.4000	49.2480	0.9	0.85	1000	-1000	1000	0.1	0.01	0	0	1;
	2216	0.0	0.0	1.00	136.3500	68.1750	49.0860	0.9	0.85	1000	-1000	1000	0.1	0.01	0	0	1;
	2695	0.0	0.0	1.00	133.8000	66.9000	48.1680	0.9	0.85	1000	-1000	1000	0.1	0.01	0	0	1;
	783	0.0	0.0	1.00	133.5000	66.7500	48.0600	0.9	0.85	1000	-1000	1000	0.1	0.01	0	0	1;
	3768	0.0	0.0	1.00	132.9000	66.4500	47.8440	0.9	0.85	1000	-1000	1000	0.1	0.01	0	0	1;
	5999	0.0	0.0	1.00	132.3000	66.1500	47.6280	0.9	0.85	1000	-1000	1000	0.1	0.01	0	0	1;
	2525	0.0	0.0	1.00	132.0000	66.0000	47.5200	0.9	0.85	1000	-1000	1000	0.1	0.01	0	0	1;
	4387	0.0	0.0	1.00	129.6000	64.8000	46.6560	0.9	0.85	1000	-1000	1000	0.1	0.01	0	0	1;
	3948	0.0	0.0	1.00	129.4500	64.7250	46.6020	0.9	0.85	1000	-1000	1000	0.1	0.01	0	0	1;
	2255	0.0	0.0	1.00	127.3500	63.6750	45.8460	0.9	0.85	1000	-1000	1000	0.1	0.01	0	0	1;
	1892	0.0	0.0	1.00	127.0500	63.5250	45.7380	0.9	0.85	1000	-1000	1000	0.1	0.01	0	0	1;
	6014	0.0	0.0	1.00	126.6000	63.3000	45.5760	0.9	0.85	1000	-1000	1000	0.1	0.01	0	0	1;
	3655	0.0	0.0	1.00	126.4500	63.2250	45.5220	0.9	0.85	1000	-1000	1000	0.1	0.01	0	0	1;
	6166	0.0	0.0	1.00	126.0000	63.0000	45.3600	0.9	0.85	1000	-1000	1000	0.1	0.01	0	0	1;
	6226	0.0	0.0	1.00	125.4000	62.7000	45.1440	0.9	0.85	1000	-1000	1000	0.1	0.01	0	0	1;
	134	0.0	0.0	1.00	125.2500	62.6250	45.0900	0.9	0.85	1000	-1000	1000	0.1	0.01	0	0	1;
	3407	0.0	0.0	1.00	125.2500	62.6250	45.0900	0.9	0.85	1000	-1000	1000	0.1	0.01	0	0	1;
	6114	0.0	0.0	1.00	125.1000	62.5500	45.0360	0.9	0.85	1000	-1000	1000	0.1	0.01	0	0	1;
	4104	0.0	0.0	1.00	124.8000	62.4000	44.9280	0.9	0.85	1000	-1000	1000	0.1	0.01	0	0	1;
	3847	0.0	0.0	1.00	124.2000	62.1000	44.7120	0.9	0.85	1000	-1000	1000	0.1	0.01	0	0	1;
	4197	0.0	0.0	1.00	123.3000	61.6500	44.3880	0.9	0.85	1000	-1000	1000	0.1	0.01	0	0	1;
	2795	0.0	0.0	1.00	123.1500	61.5750	44.3340	0.9	0.85	1000	-1000	1000	0.1	0.01	0	0	1;
	3566	0.0	0.0	1.00	121.8000	60.9000	43.8480	0.9	0.85	1000	-1000	1000	0.1	0.01	0	0	1;
	5961	0.0	0.0	1.00	121.6500	60.8250	43.7940	0.9	0.85	1000	-1000	1000	0.1	0.01	0	0	1;
	6023	0.0	0.0	1.00	121.6500	60.8250	43.7940	0.9	0.85	1000	-1000	1000	0.1	0.01	0	0	1;
	6097	0.0	0.0	1.00	121.2000	60.6000	43.6320	0.9	0.85	1000	-1000	1000	0.1	0.01	0	0	1;
	1092	0.0	0.0	1.00	121.0500	60.5250	43.5780	0.9	0.85	1000	-1000	1000	0.1	0.01	0	0	1;
	3086	0.0	0.0	1.00	121.0500	60.5250	43.5780	0.9	0.85	1000	-1000	1000	0.1	0.01	0	0	1;
	4159	0.0	0.0	1.00	120.1500	60.0750	43.2540	0.9	0.85	1000	-1000	1000	0.1	0.01	0	0	1;
	4848	0.0	0.0	1.00	118.8000	59.4000	42.7680	0.9	0.85	1000	-1000	1000	0.1	0.01	0	0	1;
	2826	0.0	0.0	1.00	118.5000	59.2500	42.6600	0.9	0.85	1000	-1000	1000	0.1	0.01	0	0	1;
	4645	0.0	0.0	1.00	117.9000	58.9500	42.4440	0.9	0.85	1000	-1000	1000	0.1	0.01	0	0	1;
	756	0.0	0.0	1.00	117.1500	58.5750	42.1740	0.9	0.85	1000	-1000	1000	0.1	0.01	0	0	1;
	3736	0.0	0.0	1.00	116.8500	58.4250	42.0660	0.9	0.85	1000	-1000	1000	0.1	0.01	0	0	1;
	6053	0.0	0.0	1.00	116.8500	58.4250	42.0660	0.9	0.85	1000	-1000	1000	0.1	0.01	0	0	1;
	107	0.0	0.0	1.00	116.4000	58.2000	41.9040	0.9	0.85	1000	-1000	1000	0.1	0.01	0	0	1;
	83	0.0	0.0	1.00	116.2500	58.1250	41.8500	0.9	0.85	1000	-1000	1000	0.1	0.01	0	0	1;
	6156	0.0	0.0	1.00	116.2500	58.1250	41.8500	0.9	0.85	1000	-1000	1000	0.1	0.01	0	0	1;
	3708	0.0	0.0	1.00	115.6500	57.8250	41.6340	0.9	0.85	1000	-1000	1000	0.1	0.01	0	0	1;
	6022	0.0	0.0	1.00	115.5000	57.7500	41.5800	0.9	0.85	1000	-1000	1000	0.1	0.01	0	0	1;
	1268	0.0	0.0	1.00	115.3500	57.6750	41.5260	0.9	0.85	1000	-1000	1000	0.1	0.01	0	0	1;
	6001	0.0	0.0	1.00	115.3500	57.6750	41.5260	0.9	0.85	1000	-1000	1000	0.1	0.01	0	0	1;
	3746	0.0	0.0	1.00	114.4500	57.2250	41.2020	0.9	0.85	1000	-1000	1000	0.1	0.01	0	0	1;
	4044	0.0	0.0	1.00	114.0000	57.0000	41.0400	0.9	0.85	1000	-1000	1000	0.1	0.01	0	0	1;
	905	0.0	0.0	1.00	112.6500	56.3250	40.5540	0.9	0.85	1000	-1000	1000	0.1	0.01	0	0	1;
	3711	0.0	0.0	1.00	112.2000	56.1000	40.3920	0.9	0.85	1000	-1000	1000	0.1	0.01	0	0	1;
	4589	0.0	0.0	1.00	111.7500	55.8750	40.2300	0.9	0.85	1000	-1000	1000	0.1	0.01	0	0	1;
	4128	0.0	0.0	1.00	111.4500	55.7250	40.1220	0.9	0.85	1000	-1000	1000	0.1	0.01	0	0	1;
	6158	0.0	0.0	1.00	111.0000	55.5000	39.9600	0.9	0.85	1000	-1000	1000	0.1	0.01	0	0	1;
	203	0.0	0.0	1.00	109.9500	54.9750	39.5820	0.9	0.85	1000	-1000	1000	0.1	0.01	0	0	1;
	3127	0.0	0.0	1.00	109.6500	54.8250	39.4740	0.9	0.85	1000	-1000	1000	0.1	0.01	0	0	1;
	2081	0.0	0.0	1.00	109.5000	54.7500	39.4200	0.9	0.85	1000	-1000	1000	0.1	0.01	0	0	1;
	3365	0.0	0.0	1.00	108.9000	54.4500	39.2040	0.9	0.85	1000	-1000	1000	0.1	0.01	0	0	1;
	3271	0.0	0.0	1.00	108.1500	54.0750	38.9340	0.9	0.85	1000	-1000	1000	0.1	0.01	0	0	1;
	1506	0.0	0.0	1.00	107.8500	53.9250	38.8260	0.9	0.85	1000	-1000	1000	0.1	0.01	0	0	1;
	1690	0.0	0.0	1.00	107.7000	53.8500	38.7720	0.9	0.85	1000	-1000	1000	0.1	0.01	0	0	1;
...
];

%% branch data
%	fbus	tbus	r	x	b	rateA	rateB	rateC	ratio	angle	status	angmin	angmax
mpc.branch = [
	4644	 1	 0.005726	 0.010482	 0.0	 2186	 2186	 2186	 0.0	 0.0	 1	 -30.0	 30.0;
	5243	 1	 0.01284	 0.025679	 0.0	 910	 910	 910	 0.0	 0.0	 1	 -30.0	 30.0;
	1682	 2	 0.005799	 0.010615	 0.0075	 2441	 2441	 2441	 0.0	 0.0	 1	 -30.0	 30.0;
	1673	 3	 0.134039	 0.309398	 0.0035	 91	 91	 91	 0.0	 0.0	 1	 -30.0	 30.0;
	2302	 3	 0.049131	 0.133283	 0.0015	 215	 215	 215	 0.0	 0.0	 1	 -30.0	 30.0;
	694	 4	 0.025926	 0.109136	 0.0002	 281	 281	 281	 0.0	 0.0	 1	 -30.0	 30.0;
	3940	 4	 0.05	 0.126914	 0.0006	 226	 226	 226	 0.0	 0.0	 1	 -30.0	 30.0;
	5043	 4	 0.02321	 0.097407	 0.0016	 315	 315	 315	 0.0	 0.0	 1	 -30.0	 30.0;
	4414	 5	 0.040564	 0.113631	 0.0013	 245	 245	 245	 0.0	 0.0	 1	 -30.0	 30.0;
	2780	 6	 0.006047	 0.020912	 0.0222	 1398	 1398	 1398	 0.0	 0.0	 1	 -30.0	 30.0;
	2781	 7	 0.012472	 0.032099	 0.0061	 884	 884	 884	 0.0	 0.0	 1	 -30.0	 30.0;
	2468	 8	 0.002607	 0.017462	 0.0324	 540.0	 540.0	 540.0	 0.0	 0.0	 1	 -30.0	 30.0;
	471	 9	 0.053893	 0.14258	 0.0017	 194	 194	 194	 0.0	 0.0	 1	 -30.0	 30.0;
	11	 10	 0.000247	 0.001235	 0.0005	 24078	 24078	 24078	 0.0	 0.0	 1	 -30.0	 30.0;
...